/*---------------------------------------------------------------------------*\
| =========                 |                                                 |
| \\      /  F ield         | OpenFOAM: The Open Source CFD Toolbox           |
|  \\    /   O peration     | Version:  4.0                                   |
|   \\  /    A nd           | Web:      www.OpenFOAM.org                      |
|    \\/     M anipulation  |                                                 |
\*---------------------------------------------------------------------------*/
Build  : 4.0
Exec   : pemfcSinglephaseNonIsothermalSolver
Date   : Apr 22 2021
Time   : 22:35:15
Host   : "fatima-HP-625"
PID    : 8407
Case   : /home/fatima/OpenFOAM/fatima-4.0/run/pemfcSinglePhaseModel-4.0/run
nProcs : 1
sigFpe : Enabling floating point exception trapping (FOAM_SIGFPE).
fileModificationChecking : Monitoring run-time modified files using timeStampMaster
allowSystemOperations : Allowing user-supplied system call operations

// * * * * * * * * * * * * * * * * * * * * * * * * * * * * * * * * * * * * * //
Create time

Create mesh for time = 0

Reading cell properties

potentiostatic run
    Ibar0 = Ibar0 [0 -2 0 0 0 1 0] 141
    V     = V [1 2 -3 0 0 -1 0] 0.75
CL electronic conductivity(kappaCl) = kappaCl [-1 -2 3 0 0 2 0] 1000
GDL electronic conductivity(kappaGdl) = kappaGdl [-1 -2 3 0 0 2 0] 5000
GDL - BP Contact resistance (rContact)= rContact [1 4 -3 0 0 -2 0] 2e-06
BP electronic conductivity(kappaBp) = kappaBp [-1 -2 3 0 0 2 0] 83000
CL thickness (tCl) = tCl [0 1 0 0 0 0 0] 3.7e-06
GDL thickness (tGdl) = tGdl [0 1 0 0 0 0 0] 0.00041
BP thickness (tBp) = tBp [0 1 0 0 0 0 0] 0.003
concentration overpotential constant = etaConCaConstant [0 0 0 0 0 0 0] 0.25

    Tinit = Tinit [0 0 0 1 0 0 0] 353

    anodeName              = fuel_to_electrolyte
    fuelInletName          = fuelInlet
    fuelOutletName         = fuelOutlet
    fuelAbpName            = fuel_to_abp
    cathodeName            = air_to_electrolyte
    airInletName           = airInlet
    airOutletName          = airOutlet
    airCbpName             = air_to_cbp
    electrolyteAnodeName   = electrolyte_to_fuel
    electrolyteCathodeName = electrolyte_to_air
    abpFuelName            = abp_to_fuel
    cbpAirName             = cbp_to_air

Reading cell field T

Reading cell field k

Reading anode bipolarPlate properties

  anode bipolarPlate
    rhoAnodeBipolarPlate = rho [1 -3 0 0 0 0 0] 1880
    CpAnodeBipolarPlate  = Cp [0 2 -2 -1 0 0 0] 875
    kAnodeBipolarPlate   = k [1 1 -3 -1 0 0 0] 10.7

Reading cathode bipolarPlate properties

  cathode bipolarPlate
    rhoCathodeBipolarPlate = rho [1 -3 0 0 0 0 0] 1880
    CpCathodeBipolarPlate  = Cp [0 2 -2 -1 0 0 0] 875
    kCathodeBipolarPlate   = k [1 1 -3 -1 0 0 0] 10.7

Creating anode bipolar plate field TanodeBP
Creating cathode bipolar plate field TcathodeBP
Reading fuel properties

    muF       = mu [1 -1 -1 0 0 0 0] 1.155227e-05
    rhoF      = rho [1 -3 0 0 0 0 0] 1.138
    CpF       = Cp [0 2 -2 -1 0 0 0] 3743
    kF        = k [1 1 -3 -1 0 0 0] 0.01805811
    dHydFuel  = dHyd [0 1 0 0 0 0 0] 0.001

Creating fuel field p
Creating fuel field rho
Creating fuel field mu
Creating fuel field U
Creating fuel face flux field phi
Creating fuel field Tfuel
Creating fuel field cp
Creating fuel field k
Creating fuel porous zones
Creating porosity model list from porosityProperties

Porosity region agdl:
    selecting model: myDarcyForchheimer
    creating porous zone: agdl
Porosity region acl:
    selecting model: myDarcyForchheimer
    creating porous zone: acl
    number of porous zones = 2
    zone 1(6) agdl : size = 19360; porosity = 0.5
    zone 1(5) acl : size = 1936; porosity = 0.4


Reading fuel pemfcSpeciesProperties
               name    MW[kg/kmol]     ne      rSign   hForm       sForm   
fuelSpecies[0] CH3OH   32.04           6       -1      0           239.9   
fuelSpecies[1] H2O     18.016          0       0       0           188.835 
fuelSpecies[2] CO2     44.01           6       1       -393520     213.79  

fuelInertSpecie = H2O

CpCoeffs(CH3OH) 45.89 -138.48 709.4 -1125.82 917.63 -384.69 65.53
CpCoeffs(H2O) 37.373 -41.205 146.01 -217.08 181.54 -79.409 14.015
CpCoeffs(CO2) 4.3669 204.6 -471.33 657.88 -519.9 214.58 -35.992

muCoeffs(CH3OH) 11.25 181.4 612.85 -1097.2 910.24 -378.75 63.45
muCoeffs(H2O) -6.7541 244.93 419.5 -522.38 348.12 -126.96 19.591
muCoeffs(CO2) -20.434 680.07 -432.49 244.22 -85.929 14.45 -0.4564

kCoeffs(CH3OH) 1.6778 -12.5727 55.8068 -62.8414 41.0951 -14.9573 2.32
kCoeffs(H2O) 2.0103 -7.9139 35.922 -41.39 35.993 -18.974 4.1531
kCoeffs(CO2) 2.8888 -27.018 129.65 -233.29 216.83 -101.12 18.698

ToddYoung checks
CH3OH
    Cp(353) = 48.14942
    mu(353) = 115.5687
    k(353)  = 1.990069
H2O
    Cp(353) = 33.88381
    mu(353) = 113.7492
    k(353)  = 2.33519
CO2
    Cp(353) = 39.83071
    mu(353) = 175.2251
    k(353)  = 2.094009

Reading electrolyte properties

    rhoElectrolyte  = rho [1 -3 0 0 0 0 0] 1980
    CpElectrolyte   = Cp [0 2 -2 -1 0 0 0] 1050
    kElectrolyte    = k [1 1 -3 -1 0 0 0] 0.67
    sigmaElectrolyte    = sigma [-1 -2 3 0 0 2 0] 17

Reading activation parameters

    i0AnodeElectrolyteReference    = i0aReference [0 -2 0 0 0 1 0] 94.25
    EAnodeElectrolyte    = EAnode [1 2 -2 0 -1 0 0] 35570
    alphaAnodeElectrolyte    = alphaAnode [0 0 0 0 0 0 0] 0.5
    i0CathodeElectrolyteReference    = i0Reference [0 -2 0 0 0 1 0] 0.04222
    ECathodeElectrolyte    = ECathode [1 2 -2 0 -1 0 0] 73220
    alphaCathodeElectrolyte    = alphaCathode [0 0 0 0 0 0 0] 0.5

creating current density field

creating voltage field

creating Nernst potential field

Creating electrolyte field Telectrolyte
Reading air properties

    muA   = mu [1 -1 -1 0 0 0 0] 1.5158e-05
    rhoA  = rho [1 -3 0 0 0 0 0] 0.914
    CpA   = Cp [0 2 -2 -1 0 0 0] 1108.85
    kA    = k [1 1 -3 -1 0 0 0] 0.02867
    dHydAir  = dHyd [0 1 0 0 0 0 0] 0.001

Creating air field p
Creating air field rho
Creating air field mu
Creating air field U
Creating air face flux field phi
Creating air field Tair
Creating air field cp
Creating air field k
Creating air porous zones
Creating porosity model list from porosityProperties

Porosity region cgdl:
    selecting model: myDarcyForchheimer
    creating porous zone: cgdl
Porosity region ccl:
    selecting model: myDarcyForchheimer
    creating porous zone: ccl
    number of porous zones = 2
    zone 1(5) cgdl : size = 19360; porosity = 0.5
    zone 1(6) ccl : size = 1936; porosity = 0.4


Reading air pemfcSpeciesProperties
              name    MW[kg/kmol]     ne      rSign   hForm       sForm   
airSpecies[0] O2      32              4       -1      0           205.152 
airSpecies[1] N2      28.02           0       0       0           191.609 
airSpecies[2] H2O     18.016          2       1       -241834.9   188.835 

airInertSpecie = N2

CpCoeffs(O2) 34.85 -57.975 203.68 -300.37 231.72 -91.821 14.776
CpCoeffs(N2) 29.027 4.8987 -38.04 105.17 -113.56 55.554 -10.35
CpCoeffs(H2O) 37.373 -41.205 146.01 -217.08 181.54 -79.409 14.015

muCoeffs(O2) -1.6918 889.75 -892.79 905.98 -598.36 221.64 -34.754
muCoeffs(N2) 1.2719 771.45 -809.2 832.47 -553.93 206.15 -32.43
muCoeffs(H2O) -6.7541 244.93 419.5 -522.38 348.12 -126.96 19.591

kCoeffs(O2) -0.1857 11.118 -7.3734 6.713 -4.1797 1.491 -0.2278
kCoeffs(N2) -0.3216 14.81 -25.473 38.837 -32.133 13.493 -2.2741
kCoeffs(H2O) 2.0103 -7.9139 35.922 -41.39 35.993 -18.974 4.1531

ToddYoung checks
O2
    Cp(353) = 29.67613
    mu(353) = 232.8482
    k(353)  = 3.058278
N2
    Cp(353) = 29.16341
    mu(353) = 201.8441
    k(353)  = 3.011103
H2O
    Cp(353) = 33.88381
    mu(353) = 113.7492
    k(353)  = 2.33519


Reading rxnProperties
rxnSpCoef contents: 
5
(
CO2
O2
CH3OH
e
H2O
)

rxnSpecies stoichiometric coefficients: 
stoichCoeff O2 = 1.5
stoichCoeff H2O = 2
stoichCoeff CH3OH = 1
stoichCoeff CO2 = 1
stoichCoeff e = 6

Setting special patch IDs

    electrolyte thickness (calculated) tMem = tMem [0 1 0 0 0 0 0] 0.000127


Creating fuel diffusivity models
zone 2 fuel
Selecting diffusivity model fixedDiffusivity
anodeZone 0, fuelZone 6: agdl
size = 19360
Selecting diffusivity model fixedDiffusivity
anodeZone 1, fuelZone 5: acl
size = 1936
Selecting diffusivity model fixedDiffusivity

Creating air diffusivity models
zone 4 air
Selecting diffusivity model binaryFSG
cathodeZone 0, airZone 5: cgdl
size = 19360
Selecting diffusivity model porousFSG
cathodeZone 1, airZone 6: ccl
size = 1936
Selecting diffusivity model porousFSG

Starting time loop

Time = 1

Tfuel min mean max = 353    353    353
Tair min mean max  = 353    353    353
min,mean,max(rhoFuel): 1.02623   1.02623   1.02623
min,mean,max(rhoAir): 0.9139413   0.9139413   0.9139413
min,mean,max(muFuel): 1.153868e-05   1.153868e-05   1.153868e-05
min,mean,max(muAir): 1.948307e-05   1.948307e-05   1.948307e-05
min,mean,max(kFuel): 0.02024581   0.02024581   0.02024581
min,mean,max(kAir): 0.02919151   0.02919151   0.02919151

Solving air flow
--> FOAM Warning : 
    From function Foam::fv::gaussConvectionScheme<Type>::gaussConvectionScheme(const Foam::fvMesh&, const surfaceScalarField&, Foam::Istream&) [with Type = Foam::Vector<double>; Foam::surfaceScalarField = Foam::GeometricField<double, Foam::fvsPatchField, Foam::surfaceMesh>]
    in file finiteVolume/convectionSchemes/gaussConvectionScheme/gaussConvectionScheme.H at line 124
    Reading "/home/fatima/OpenFOAM/fatima-4.0/run/pemfcSinglePhaseModel-4.0/run/system/air/fvSchemes.divSchemes.div(phi,U)" at line 32
    Unbounded 'Gauss' div scheme used in steady-state solver, use 'bounded Gauss' to ensure boundedness.
    To remove this warning switch off 'warnUnboundedGauss' in "/home/fatima/OpenFOAM/OpenFOAM-4.0/etc/controlDict"
DILUPBiCG:  Solving for Ux, Initial residual = 0.9999968, Final residual = 1.5478e-10, No Iterations 4
DILUPBiCG:  Solving for Uy, Initial residual = 0.999979, Final residual = 4.87157e-12, No Iterations 5
DILUPBiCG:  Solving for Uz, Initial residual = 1, Final residual = 2.371463e-10, No Iterations 4
DICPCG:  Solving for p, Initial residual = 1, Final residual = 7.936234e-10, No Iterations 232
time step continuity errors : sum local = 2.430812e-06, global = -4.231357e-08
DICPCG:  Solving for p, Initial residual = 0.09747526, Final residual = 8.895001e-10, No Iterations 213
time step continuity errors : sum local = 9.933432e-06, global = -5.04579e-08

Solving fuel flow
--> FOAM Warning : 
    From function Foam::fv::gaussConvectionScheme<Type>::gaussConvectionScheme(const Foam::fvMesh&, const surfaceScalarField&, Foam::Istream&) [with Type = Foam::Vector<double>; Foam::surfaceScalarField = Foam::GeometricField<double, Foam::fvsPatchField, Foam::surfaceMesh>]
    in file finiteVolume/convectionSchemes/gaussConvectionScheme/gaussConvectionScheme.H at line 124
    Reading "/home/fatima/OpenFOAM/fatima-4.0/run/pemfcSinglePhaseModel-4.0/run/system/fuel/fvSchemes.divSchemes.div(phi,U)" at line 32
    Unbounded 'Gauss' div scheme used in steady-state solver, use 'bounded Gauss' to ensure boundedness.
    To remove this warning switch off 'warnUnboundedGauss' in "/home/fatima/OpenFOAM/OpenFOAM-4.0/etc/controlDict"
DILUPBiCG:  Solving for Ux, Initial residual = 0.9999968, Final residual = 1.317541e-11, No Iterations 3
DILUPBiCG:  Solving for Uy, Initial residual = 0.9997891, Final residual = 7.226337e-10, No Iterations 3
DILUPBiCG:  Solving for Uz, Initial residual = 1, Final residual = 2.37403e-10, No Iterations 4
DICPCG:  Solving for p, Initial residual = 1, Final residual = 6.789517e-10, No Iterations 223
time step continuity errors : sum local = 3.768277e-06, global = -1.561403e-08
DICPCG:  Solving for p, Initial residual = 0.0918586, Final residual = 9.048516e-10, No Iterations 206
time step continuity errors : sum local = 7.246305e-06, global = -2.706931e-08
ReFuel = 1232.81
ReAir  = 1172.813

fuelSpecies CH3OH

fuelDiffModels[0]
  zone size = 39776
diffusivityModels::fixedDiffusivity: 
   diff0 = diff0 [0 2 -1 0 0 0 0] 2.11143e-05

fuelDiffModels[1]
  zone size = 19360
diffusivityModels::fixedDiffusivity: 
   diff0 = diff0 [0 2 -1 0 0 0 0] 7.465e-06

fuelDiffModels[2]
  zone size = 1936
diffusivityModels::fixedDiffusivity: 
   diff0 = diff0 [0 2 -1 0 0 0 0] 1.8885e-06

diffSpFuel[CH3OH]
    internalField min mean max = 1.8885e-06  1.353507e-05  2.11143e-05

fuelSpecies CO2

fuelDiffModels[0]
  zone size = 39776
diffusivityModels::fixedDiffusivity: 
   diff0 = diff0 [0 2 -1 0 0 0 0] 2.11143e-05

fuelDiffModels[1]
  zone size = 19360
diffusivityModels::fixedDiffusivity: 
   diff0 = diff0 [0 2 -1 0 0 0 0] 7.465e-06

fuelDiffModels[2]
  zone size = 1936
diffusivityModels::fixedDiffusivity: 
   diff0 = diff0 [0 2 -1 0 0 0 0] 1.8885e-06

diffSpFuel[CO2]
    internalField min mean max = 1.8885e-06  1.353507e-05  2.11143e-05

airSpecies O2

airDiffModels[0]
  zone size = 39776
diffusivityModels::binaryFSG:
    diffusing speciesA molWt diffVol: O2 31.9988 16.3
   background speciesB molWt diffVol: N2 28.0134 18.5
diffusivityModels::binaryFSG:
    diffusing speciesA molWt diffVol: O2 31.9988 16.3
   background speciesB molWt diffVol: H2O 18.01534 13.1

airDiffModels[1]
  zone size = 19360
diffusivityModels::porousFSG:
    diffusing speciesA molWt diffVol:  O2 31.9988 16.3
    background speciesB molWt diffVol: N2 28.0134 18.5
    dPore      = dPore [0 1 0 0 0 0 0] 2.64e-05
    porosity   = 1
    tortuosity = 1.5
diffusivityModels::porousFSG:
    diffusing speciesA molWt diffVol:  O2 31.9988 16.3
    background speciesB molWt diffVol: H2O 18.01534 13.1
    dPore      = dPore [0 1 0 0 0 0 0] 2.64e-05
    porosity   = 1
    tortuosity = 1.5

airDiffModels[2]
  zone size = 1936
diffusivityModels::porousFSG:
    diffusing speciesA molWt diffVol:  O2 31.9988 16.3
    background speciesB molWt diffVol: N2 28.0134 18.5
    dPore      = dPore [0 1 0 0 0 0 0] 1.19e-07
    porosity   = 1
    tortuosity = 1.5
diffusivityModels::porousFSG:
    diffusing speciesA molWt diffVol:  O2 31.9988 16.3
    background speciesB molWt diffVol: H2O 18.01534 13.1
    dPore      = dPore [0 1 0 0 0 0 0] 1.19e-07
    porosity   = 1
    tortuosity = 1.5

diffSpAir[O2]
    internalField min mean max = 7.65722e-06  2.319253e-05  2.937876e-05

airSpecies H2O

airDiffModels[0]
  zone size = 39776
diffusivityModels::binaryFSG:
    diffusing speciesA molWt diffVol: H2O 18.01534 13.1
   background speciesB molWt diffVol: O2 31.9988 16.3
diffusivityModels::binaryFSG:
    diffusing speciesA molWt diffVol: H2O 18.01534 13.1
   background speciesB molWt diffVol: N2 28.0134 18.5

airDiffModels[1]
  zone size = 19360
diffusivityModels::porousFSG:
    diffusing speciesA molWt diffVol:  H2O 18.01534 13.1
    background speciesB molWt diffVol: O2 31.9988 16.3
    dPore      = dPore [0 1 0 0 0 0 0] 2.64e-05
    porosity   = 1
    tortuosity = 1.5
diffusivityModels::porousFSG:
    diffusing speciesA molWt diffVol:  H2O 18.01534 13.1
    background speciesB molWt diffVol: N2 28.0134 18.5
    dPore      = dPore [0 1 0 0 0 0 0] 2.64e-05
    porosity   = 1
    tortuosity = 1.5

airDiffModels[2]
  zone size = 1936
diffusivityModels::porousFSG:
    diffusing speciesA molWt diffVol:  H2O 18.01534 13.1
    background speciesB molWt diffVol: O2 31.9988 16.3
    dPore      = dPore [0 1 0 0 0 0 0] 1.19e-07
    porosity   = 1
    tortuosity = 1.5
diffusivityModels::porousFSG:
    diffusing speciesA molWt diffVol:  H2O 18.01534 13.1
    background speciesB molWt diffVol: N2 28.0134 18.5
    dPore      = dPore [0 1 0 0 0 0 0] 1.19e-07
    porosity   = 1
    tortuosity = 1.5

diffSpAir[H2O]
    internalField min mean max = 9.719584e-06  2.752454e-05  3.481555e-05

Solving air scalars
 Yair[0].name() = YO2air
DILUPBiCG:  Solving for YO2air, Initial residual = 0.999953, Final residual = 1.282561e-10, No Iterations 34
 Yair[1].name() = YN2air
 Yair[2].name() = YH2Oair
DILUPBiCG:  Solving for YH2Oair, Initial residual = 0.9999651, Final residual = 3.903675e-10, No Iterations 34
inertIndex = 1
min,mean,max(YO2air): 0.2 , 0.2 , 0.2
min,mean,max(YN2air): 0.65 , 0.65 , 0.65
min,mean,max(YH2Oair): 0.15 , 0.15 , 0.15

Solving fuel scalars
 Yfuel[0].name() = YCH3OHfuel
DILUPBiCG:  Solving for YCH3OHfuel, Initial residual = 0.9999484, Final residual = 5.750266e-10, No Iterations 33
 Yfuel[1].name() = YH2Ofuel
 Yfuel[2].name() = YCO2fuel
DILUPBiCG:  Solving for YCO2fuel:  solution singularity
inertIndex = 1
min,mean,max(YCH3OHfuel): 0.9 , 0.9 , 0.9000001
min,mean,max(YH2Ofuel): 0.09999991 , 0.1 , 0.1
min,mean,max(YCO2fuel): 1e-15 , 1e-15 , 1e-15

Solving electrochemistry
min,max(anodeT): 353 , 353
min,max(cathodeT): 353 , 353
min,mean,max(XCH3OH): 0.8350018 , 0.8350019 , 0.835002
min,mean,max(XCO2): 1e-15 , 1e-15 , 1e-15
min,mean,max(XO2): 0.1654593 , 0.1654593 , 0.1654593
min,mean,max(XH2O): 0.2204164 , 0.2204164 , 0.2204164
O2  1.5
   mean H(T) = 2426.383
   mean S(T) = 315.1971
H2O  2
   mean H(T) = -479971.3
   mean S(T) = 389.0555
CH3OH  1
   mean H(T) = 2531.134
   mean S(T) = 247.6835
CO2  1
   mean H(T) = -391402.8
   mean S(T) = 220.3025
 mean deltaHrxn = -876331.5
 mean cathodeT  = 353
 mean deltaSrxn = 46.47744
 mean TdeltaS   = 16406.54
 mean deltaG    = -892738.1

min,mean,max Nernst = 1.717942  1.717942  1.717942

min,max(pSatAnode): 47024.19 , 47024.19
min,max(pSatCathode): 47024.19 , 47024.19
min,mean,max(wActivityAnode): 0.3556245 , 0.3571479  0.358555
min,mean,max(wActivityCathode): 0.4753312 , 0.481527  0.4872526
min,mean,max(a): 0.8309557 , 0.8386749  0.8458076
min, mean, max (lambda): 7.458415 , 7.65953  7.848641
min,mean,max(sigma): 6.343795  6.530756  6.706558
min,mean,max (RiMem) = 9.484119e-06  1.943163e-05  2.001817e-05
min,mean,max (ASR)= 1.390291e-05 2.385042e-05 2.443696e-05
min,mean,max(concentrationO2)= 5.712133  5.712133  5.712133
min,mean,max(concentrationMe)= 28.82668  28.82668  28.82669
min,mean,max (cathodeT) = 353  353  353
min,mean,max (i0Ca) = 0.04177499  0.04177499  0.04177499
min,mean,max (anodeT) = 353  353  353
min,mean,max (i0An) = 93.76608  93.76608  93.76608
min,mean,max (iLCa) = 41172.47  41367.7  41580.24
min,mean,max (etaActCa) = 0.6152315  0.6153359  0.6171578
min,mean,max (etaActCa) = 0.3433764  0.3434808  0.3453027
min,mean,max (etaConCa) = 0.002307038  0.002322977  0.002404589
min,mean,max (etaOhmic) = 0.00548095  0.009124871  0.009333541

Solve current

layer 1

sumVolume: 6.1468e-08
min,max(Nernst): 1.717942 , 1.717942
    Ibar = 382.5997    V = 0.75

stack Voltage =0.75
min,mean,max(current): 381.9436 , 382.5997 , 394.2304

Calculating electrochemical heating
anodeEntropyChange  min max: -4.563502 -4.563502
cathodeEntropyChange  min max: 44.73104 44.73104
totalEntropyChange  min max: 40.16754 40.16754
totalEntropySource  min max: -14179.14 -14179.14  -14179.14
min,mean,max(electrochemicalHeating): 192058.6  192353  197481.6
fuel species electrochemical fluxes and YEqn BCs
s species[] isFlux[] mflux[] = 0 CH3OH true -0.02049745
s species[] isFlux[] mflux[] = 1 H2O false 0
s species[] isFlux[] mflux[] = 2 CO2 true 0.02815521


fuel mass rates: 
   inlet: 0.000298725   outlet: 0.0001282956   anode: 3.828878e-09
CH3OH mass rates: 
   inlet = 0.0002688525   outlet = 0.000115466   chem = 1.024873e-08
      utilization by chemRate = 3.812025e-05
      utilization by outRate  = 0.5705229


air species electrochemical fluxes and YEqn BCs
s species[] isFlux[] mflux[] = 0 O2 true -0.03070779
s species[] isFlux[] mflux[] = 1 N2 false 0
s species[] isFlux[] mflux[] = 2 H2O true 0.03457697


air mass rates: 
   inlet: 0.00047985   outlet: 0.0002060846   cathode: 1.934591e-09
O2 mass rates: 
   inlet = 9.597e-05   outlet = 4.121692e-05   chem = 1.53539e-08
      utilization by chemRate = 0.0001599864
      utilization by outRate  = 0.5705229

min mean max rhoCpF(fuel) = 1580.997 1580.997 1580.997


min mean max rhoCpF(air) = 1045.654 1045.654 1045.654
ELECTROLYTE FLUX MAPPING ACTIVATED
time step continuity errors : sum local = 3.380032e-06, global = -1.525311e-08

Solving energy
--> FOAM Warning : 
    From function Foam::fv::gaussConvectionScheme<Type>::gaussConvectionScheme(const Foam::fvMesh&, const surfaceScalarField&, Foam::Istream&) [with Type = double; Foam::surfaceScalarField = Foam::GeometricField<double, Foam::fvsPatchField, Foam::surfaceMesh>]
    in file finiteVolume/convectionSchemes/gaussConvectionScheme/gaussConvectionScheme.H at line 124
    Reading "/home/fatima/OpenFOAM/fatima-4.0/run/pemfcSinglePhaseModel-4.0/run/system/fvSchemes.divSchemes.div(rhoCpPhi,T)" at line 31
    Unbounded 'Gauss' div scheme used in steady-state solver, use 'bounded Gauss' to ensure boundedness.
    To remove this warning switch off 'warnUnboundedGauss' in "/home/fatima/OpenFOAM/OpenFOAM-4.0/etc/controlDict"
DILUPBiCG:  Solving for T, Initial residual = 1, Final residual = 6.330032e-19, No Iterations 382
T min mean max     = 353    353.024    353.0557

 sum TcellEqn.source() =   0.01182622

ExecutionTime = 16.3 s


Time = 2

Tfuel min mean max = 353    353.0212    353.0552
Tair min mean max  = 353    353.0209    353.055
min,mean,max(rhoFuel): 1.026323   1.030843   1.035042
min,mean,max(rhoAir): 0.9144708   0.9265618   0.9378485
min,mean,max(muFuel): 1.153868e-05   1.15394e-05   1.154057e-05
min,mean,max(muAir): 1.948307e-05   1.948399e-05   1.948549e-05
min,mean,max(kFuel): 0.02024581   0.02024776   0.0202509
min,mean,max(kAir): 0.02919151   0.02919296   0.02919533

Solving air flow
--> FOAM Warning : 
    From function Foam::fv::gaussConvectionScheme<Type>::gaussConvectionScheme(const Foam::fvMesh&, const surfaceScalarField&, Foam::Istream&) [with Type = Foam::Vector<double>; Foam::surfaceScalarField = Foam::GeometricField<double, Foam::fvsPatchField, Foam::surfaceMesh>]
    in file finiteVolume/convectionSchemes/gaussConvectionScheme/gaussConvectionScheme.H at line 124
    Reading "/home/fatima/OpenFOAM/fatima-4.0/run/pemfcSinglePhaseModel-4.0/run/system/air/fvSchemes.divSchemes.div(phi,U)" at line 32
    Unbounded 'Gauss' div scheme used in steady-state solver, use 'bounded Gauss' to ensure boundedness.
    To remove this warning switch off 'warnUnboundedGauss' in "/home/fatima/OpenFOAM/OpenFOAM-4.0/etc/controlDict"
DILUPBiCG:  Solving for Ux, Initial residual = 0.2129709, Final residual = 1.9006e-10, No Iterations 7
DILUPBiCG:  Solving for Uy, Initial residual = 0.3720257, Final residual = 1.200726e-10, No Iterations 7
DILUPBiCG:  Solving for Uz, Initial residual = 0.1641014, Final residual = 8.112342e-11, No Iterations 7
DICPCG:  Solving for p, Initial residual = 0.2136295, Final residual = 9.532456e-10, No Iterations 207
time step continuity errors : sum local = 5.100524e-06, global = -1.360435e-09
DICPCG:  Solving for p, Initial residual = 0.08487695, Final residual = 7.075371e-10, No Iterations 200
time step continuity errors : sum local = 6.488208e-06, global = -1.277657e-08

Solving fuel flow
--> FOAM Warning : 
    From function Foam::fv::gaussConvectionScheme<Type>::gaussConvectionScheme(const Foam::fvMesh&, const surfaceScalarField&, Foam::Istream&) [with Type = Foam::Vector<double>; Foam::surfaceScalarField = Foam::GeometricField<double, Foam::fvsPatchField, Foam::surfaceMesh>]
    in file finiteVolume/convectionSchemes/gaussConvectionScheme/gaussConvectionScheme.H at line 124
    Reading "/home/fatima/OpenFOAM/fatima-4.0/run/pemfcSinglePhaseModel-4.0/run/system/fuel/fvSchemes.divSchemes.div(phi,U)" at line 32
    Unbounded 'Gauss' div scheme used in steady-state solver, use 'bounded Gauss' to ensure boundedness.
    To remove this warning switch off 'warnUnboundedGauss' in "/home/fatima/OpenFOAM/OpenFOAM-4.0/etc/controlDict"
DILUPBiCG:  Solving for Ux, Initial residual = 0.2101902, Final residual = 1.290874e-10, No Iterations 7
DILUPBiCG:  Solving for Uy, Initial residual = 0.3697978, Final residual = 3.086535e-10, No Iterations 7
DILUPBiCG:  Solving for Uz, Initial residual = 0.1653418, Final residual = 9.889885e-11, No Iterations 7
DICPCG:  Solving for p, Initial residual = 0.1966752, Final residual = 6.305562e-10, No Iterations 190
time step continuity errors : sum local = 2.896874e-06, global = -4.046523e-11
DICPCG:  Solving for p, Initial residual = 0.07603171, Final residual = 9.342092e-10, No Iterations 180
time step continuity errors : sum local = 5.562129e-06, global = 2.323924e-10
ReFuel = 1232.806
ReAir  = 1172.81

fuelSpecies CH3OH

fuelDiffModels[0]
  zone size = 39776
diffusivityModels::fixedDiffusivity: 
   diff0 = diff0 [0 2 -1 0 0 0 0] 2.11143e-05

fuelDiffModels[1]
  zone size = 19360
diffusivityModels::fixedDiffusivity: 
   diff0 = diff0 [0 2 -1 0 0 0 0] 7.465e-06

fuelDiffModels[2]
  zone size = 1936
diffusivityModels::fixedDiffusivity: 
   diff0 = diff0 [0 2 -1 0 0 0 0] 1.8885e-06

diffSpFuel[CH3OH]
    internalField min mean max = 1.8885e-06  1.353507e-05  2.11143e-05

fuelSpecies CO2

fuelDiffModels[0]
  zone size = 39776
diffusivityModels::fixedDiffusivity: 
   diff0 = diff0 [0 2 -1 0 0 0 0] 2.11143e-05

fuelDiffModels[1]
  zone size = 19360
diffusivityModels::fixedDiffusivity: 
   diff0 = diff0 [0 2 -1 0 0 0 0] 7.465e-06

fuelDiffModels[2]
  zone size = 1936
diffusivityModels::fixedDiffusivity: 
   diff0 = diff0 [0 2 -1 0 0 0 0] 1.8885e-06

diffSpFuel[CO2]
    internalField min mean max = 1.8885e-06  1.353507e-05  2.11143e-05

airSpecies O2

airDiffModels[0]
  zone size = 39776
diffusivityModels::binaryFSG:
    diffusing speciesA molWt diffVol: O2 31.9988 16.3
   background speciesB molWt diffVol: N2 28.0134 18.5
diffusivityModels::binaryFSG:
    diffusing speciesA molWt diffVol: O2 31.9988 16.3
   background speciesB molWt diffVol: H2O 18.01534 13.1

airDiffModels[1]
  zone size = 19360
diffusivityModels::porousFSG:
    diffusing speciesA molWt diffVol:  O2 31.9988 16.3
    background speciesB molWt diffVol: N2 28.0134 18.5
    dPore      = dPore [0 1 0 0 0 0 0] 2.64e-05
    porosity   = 1
    tortuosity = 1.5
diffusivityModels::porousFSG:
    diffusing speciesA molWt diffVol:  O2 31.9988 16.3
    background speciesB molWt diffVol: H2O 18.01534 13.1
    dPore      = dPore [0 1 0 0 0 0 0] 2.64e-05
    porosity   = 1
    tortuosity = 1.5

airDiffModels[2]
  zone size = 1936
diffusivityModels::porousFSG:
    diffusing speciesA molWt diffVol:  O2 31.9988 16.3
    background speciesB molWt diffVol: N2 28.0134 18.5
    dPore      = dPore [0 1 0 0 0 0 0] 1.19e-07
    porosity   = 1
    tortuosity = 1.5
diffusivityModels::porousFSG:
    diffusing speciesA molWt diffVol:  O2 31.9988 16.3
    background speciesB molWt diffVol: H2O 18.01534 13.1
    dPore      = dPore [0 1 0 0 0 0 0] 1.19e-07
    porosity   = 1
    tortuosity = 1.5

diffSpAir[O2]
    internalField min mean max = 7.591535e-06  2.293216e-05  2.937141e-05

airSpecies H2O

airDiffModels[0]
  zone size = 39776
diffusivityModels::binaryFSG:
    diffusing speciesA molWt diffVol: H2O 18.01534 13.1
   background speciesB molWt diffVol: O2 31.9988 16.3
diffusivityModels::binaryFSG:
    diffusing speciesA molWt diffVol: H2O 18.01534 13.1
   background speciesB molWt diffVol: N2 28.0134 18.5

airDiffModels[1]
  zone size = 19360
diffusivityModels::porousFSG:
    diffusing speciesA molWt diffVol:  H2O 18.01534 13.1
    background speciesB molWt diffVol: O2 31.9988 16.3
    dPore      = dPore [0 1 0 0 0 0 0] 2.64e-05
    porosity   = 1
    tortuosity = 1.5
diffusivityModels::porousFSG:
    diffusing speciesA molWt diffVol:  H2O 18.01534 13.1
    background speciesB molWt diffVol: N2 28.0134 18.5
    dPore      = dPore [0 1 0 0 0 0 0] 2.64e-05
    porosity   = 1
    tortuosity = 1.5

airDiffModels[2]
  zone size = 1936
diffusivityModels::porousFSG:
    diffusing speciesA molWt diffVol:  H2O 18.01534 13.1
    background speciesB molWt diffVol: O2 31.9988 16.3
    dPore      = dPore [0 1 0 0 0 0 0] 1.19e-07
    porosity   = 1
    tortuosity = 1.5
diffusivityModels::porousFSG:
    diffusing speciesA molWt diffVol:  H2O 18.01534 13.1
    background speciesB molWt diffVol: N2 28.0134 18.5
    dPore      = dPore [0 1 0 0 0 0 0] 1.19e-07
    porosity   = 1
    tortuosity = 1.5

diffSpAir[H2O]
    internalField min mean max = 9.630319e-06  2.721549e-05  3.480683e-05

Solving air scalars
 Yair[0].name() = YO2air
DILUPBiCG:  Solving for YO2air, Initial residual = 0.9999658, Final residual = 7.290573e-10, No Iterations 34
 Yair[1].name() = YN2air
 Yair[2].name() = YH2Oair
DILUPBiCG:  Solving for YH2Oair, Initial residual = 0.9999763, Final residual = 8.614013e-10, No Iterations 34
inertIndex = 1
min,mean,max(YO2air): 0.1991208 , 0.1999109 , 0.2
min,mean,max(YN2air): 0.6499685 , 0.6499961 , 0.6500084
min,mean,max(YH2Oair): 0.15 , 0.150093 , 0.1508771

Solving fuel scalars
 Yfuel[0].name() = YCH3OHfuel
DILUPBiCG:  Solving for YCH3OHfuel, Initial residual = 0.9998215, Final residual = 9.472652e-10, No Iterations 30
 Yfuel[1].name() = YH2Ofuel
 Yfuel[2].name() = YCO2fuel
DILUPBiCG:  Solving for YCO2fuel, Initial residual = 1, Final residual = 9.01763e-10, No Iterations 30
inertIndex = 1
min,mean,max(YCH3OHfuel): 0.8989909 , 0.899866 , 0.9
min,mean,max(YH2Ofuel): 0.09997181 , 0.09999625 , 0.1
min,mean,max(YCO2fuel): 1.000736e-15 , 0.0001377538 , 0.001037241

Solving electrochemistry
min,max(anodeT): 353.015 , 353.0554
min,max(cathodeT): 353.0148 , 353.0553
min,mean,max(XCH3OH): 0.8342916 , 0.8345482 , 0.8348374
min,mean,max(XCO2): 0.000164474 , 0.0004536477 , 0.0007101854
min,mean,max(XO2): 0.164635 , 0.1651103 , 0.1653394
min,mean,max(XH2O): 0.220583 , 0.2209053 , 0.2215855
min,mean,max Nernst = 1.579543  1.582071  1.586996

min,max(pSatAnode): 47052.79 , 47130.02
min,max(pSatCathode): 47052.46 , 47129.78
min,mean,max(wActivityAnode): 0.3549227 , 0.3580776  0.361108
min,mean,max(wActivityCathode): 0.4762898 , 0.4875162  0.4990646
min,mean,max(a): 0.8312126 , 0.8455938  0.8598088
min, mean, max (lambda): 7.464976 , 7.846741  8.237306
min,mean,max(sigma): 6.353459  6.707314  7.069822
min,mean,max (RiMem) = 1.800698e-05  1.895454e-05  1.998365e-05
min,mean,max (ASR)= 2.242577e-05 2.337333e-05 2.440244e-05
min,mean,max(concentrationO2)= 5.698915  5.779924  5.855933
min,mean,max(concentrationMe)= 28.79747  28.93393  29.06257
min,mean,max (cathodeT) = 353.0148  353.0373  353.0553
min,mean,max (i0Ca) = 0.04181872  0.04188518  0.04193844
min,mean,max (anodeT) = 353.015  353.0375  353.0554
min,mean,max (i0An) = 93.81431  93.8868  93.94454
min,mean,max (iLCa) = 41476.24  41667.49  41849.43
min,mean,max (etaActCa) = 0.5499632  0.5513526  0.5538248
min,mean,max (etaActCa) = 0.276457  0.277664  0.2801212
min,mean,max (etaConCa) = 0.0007680984  0.0007854808  0.0008145683
min,mean,max (etaOhmic) = 0.002878495  0.00305427  0.003135361

Solve current

layer 1

sumVolume: 6.1468e-08
min,max(Nernst): 1.579543 , 1.586996
    Ibar = 130.7138    V = 0.75

stack Voltage =0.75
min,mean,max(current): 128.0269 , 130.7138 , 136.135

Calculating electrochemical heating
anodeEntropyChange  min max: -4.563719 -4.56356
cathodeEntropyChange  min max: 44.73144 44.73253
totalEntropyChange  min max: 40.16788 40.16881
totalEntropySource  min max: -14181.81 -14180.94  -14179.86
min,mean,max(electrochemicalHeating): 54579.87  55910.7  58585.57
fuel species electrochemical fluxes and YEqn BCs
s species[] isFlux[] mflux[] = 0 CH3OH true -0.007002883
s species[] isFlux[] mflux[] = 1 H2O false 0
s species[] isFlux[] mflux[] = 2 CO2 true 0.009619129


fuel mass rates: 
   inlet: 0.000298725   outlet: 0.0002362893   anode: 1.308123e-09
CH3OH mass rates: 
   inlet = 0.0002688525   outlet = 0.0002126499   chem = 3.501442e-09
      utilization by chemRate = 1.302365e-05
      utilization by outRate  = 0.2090462


air species electrochemical fluxes and YEqn BCs
s species[] isFlux[] mflux[] = 0 O2 true -0.01049121
s species[] isFlux[] mflux[] = 1 N2 false 0
s species[] isFlux[] mflux[] = 2 H2O true 0.0118131


air mass rates: 
   inlet: 0.00047985   outlet: 0.0003829116   cathode: 6.609463e-10
O2 mass rates: 
   inlet = 9.597e-05   outlet = 7.657018e-05   chem = 5.245605e-09
      utilization by chemRate = 5.46588e-05
      utilization by outRate  = 0.2021447

min mean max rhoCpF(fuel) = 1580.66 1588.065 1594.572


min mean max rhoCpF(air) = 1046.264 1060.177 1073.006
ELECTROLYTE FLUX MAPPING ACTIVATED
time step continuity errors : sum local = 0.004012853, global = 0.001725273

Solving energy
--> FOAM Warning : 
    From function Foam::fv::gaussConvectionScheme<Type>::gaussConvectionScheme(const Foam::fvMesh&, const surfaceScalarField&, Foam::Istream&) [with Type = double; Foam::surfaceScalarField = Foam::GeometricField<double, Foam::fvsPatchField, Foam::surfaceMesh>]
    in file finiteVolume/convectionSchemes/gaussConvectionScheme/gaussConvectionScheme.H at line 124
    Reading "/home/fatima/OpenFOAM/fatima-4.0/run/pemfcSinglePhaseModel-4.0/run/system/fvSchemes.divSchemes.div(rhoCpPhi,T)" at line 31
    Unbounded 'Gauss' div scheme used in steady-state solver, use 'bounded Gauss' to ensure boundedness.
    To remove this warning switch off 'warnUnboundedGauss' in "/home/fatima/OpenFOAM/OpenFOAM-4.0/etc/controlDict"
DILUPBiCG:  Solving for T, Initial residual = 0.2400267, Final residual = 9.731208e-19, No Iterations 396
T min mean max     = 353    353.0054    353.0134

 sum TcellEqn.source() =   0.02054105

ExecutionTime = 30.01 s


Time = 3

Tfuel min mean max = 353    353.0047    353.0133
Tair min mean max  = 353    353.0047    353.0133
min,mean,max(rhoFuel): 1.026575   1.035184   1.043184
min,mean,max(rhoAir): 0.9148915   0.9374177   0.9585445
min,mean,max(muFuel): 1.153868e-05   1.153966e-05   1.154531e-05
min,mean,max(muAir): 1.947288e-05   1.948218e-05   1.948338e-05
min,mean,max(kFuel): 0.02024581   0.02024638   0.02024801
min,mean,max(kAir): 0.02918559   0.02919116   0.02919199

Solving air flow
--> FOAM Warning : 
    From function Foam::fv::gaussConvectionScheme<Type>::gaussConvectionScheme(const Foam::fvMesh&, const surfaceScalarField&, Foam::Istream&) [with Type = Foam::Vector<double>; Foam::surfaceScalarField = Foam::GeometricField<double, Foam::fvsPatchField, Foam::surfaceMesh>]
    in file finiteVolume/convectionSchemes/gaussConvectionScheme/gaussConvectionScheme.H at line 124
    Reading "/home/fatima/OpenFOAM/fatima-4.0/run/pemfcSinglePhaseModel-4.0/run/system/air/fvSchemes.divSchemes.div(phi,U)" at line 32
    Unbounded 'Gauss' div scheme used in steady-state solver, use 'bounded Gauss' to ensure boundedness.
    To remove this warning switch off 'warnUnboundedGauss' in "/home/fatima/OpenFOAM/OpenFOAM-4.0/etc/controlDict"
DILUPBiCG:  Solving for Ux, Initial residual = 0.1684918, Final residual = 3.498486e-10, No Iterations 7
DILUPBiCG:  Solving for Uy, Initial residual = 0.2542976, Final residual = 3.13105e-10, No Iterations 7
DILUPBiCG:  Solving for Uz, Initial residual = 0.1877102, Final residual = 8.771385e-10, No Iterations 7
DICPCG:  Solving for p, Initial residual = 0.2112919, Final residual = 9.458462e-10, No Iterations 205
time step continuity errors : sum local = 5.898661e-06, global = -2.065597e-08
DICPCG:  Solving for p, Initial residual = 0.1561951, Final residual = 9.507948e-10, No Iterations 205
time step continuity errors : sum local = 4.664451e-06, global = -2.346075e-08

Solving fuel flow
--> FOAM Warning : 
    From function Foam::fv::gaussConvectionScheme<Type>::gaussConvectionScheme(const Foam::fvMesh&, const surfaceScalarField&, Foam::Istream&) [with Type = Foam::Vector<double>; Foam::surfaceScalarField = Foam::GeometricField<double, Foam::fvsPatchField, Foam::surfaceMesh>]
    in file finiteVolume/convectionSchemes/gaussConvectionScheme/gaussConvectionScheme.H at line 124
    Reading "/home/fatima/OpenFOAM/fatima-4.0/run/pemfcSinglePhaseModel-4.0/run/system/fuel/fvSchemes.divSchemes.div(phi,U)" at line 32
    Unbounded 'Gauss' div scheme used in steady-state solver, use 'bounded Gauss' to ensure boundedness.
    To remove this warning switch off 'warnUnboundedGauss' in "/home/fatima/OpenFOAM/OpenFOAM-4.0/etc/controlDict"
DILUPBiCG:  Solving for Ux, Initial residual = 0.1663359, Final residual = 8.190739e-10, No Iterations 7
DILUPBiCG:  Solving for Uy, Initial residual = 0.2550491, Final residual = 1.917038e-10, No Iterations 7
DILUPBiCG:  Solving for Uz, Initial residual = 0.1936941, Final residual = 8.606404e-10, No Iterations 7
DICPCG:  Solving for p, Initial residual = 0.208835, Final residual = 7.683374e-10, No Iterations 188
time step continuity errors : sum local = 3.565371e-06, global = 6.205093e-09
DICPCG:  Solving for p, Initial residual = 0.1535354, Final residual = 7.476127e-10, No Iterations 187
time step continuity errors : sum local = 3.00453e-06, global = 1.130916e-08
ReFuel = 1232.807
ReAir  = 1172.814

fuelSpecies CH3OH

fuelDiffModels[0]
  zone size = 39776
diffusivityModels::fixedDiffusivity: 
   diff0 = diff0 [0 2 -1 0 0 0 0] 2.11143e-05

fuelDiffModels[1]
  zone size = 19360
diffusivityModels::fixedDiffusivity: 
   diff0 = diff0 [0 2 -1 0 0 0 0] 7.465e-06

fuelDiffModels[2]
  zone size = 1936
diffusivityModels::fixedDiffusivity: 
   diff0 = diff0 [0 2 -1 0 0 0 0] 1.8885e-06

diffSpFuel[CH3OH]
    internalField min mean max = 1.8885e-06  1.353507e-05  2.11143e-05

fuelSpecies CO2

fuelDiffModels[0]
  zone size = 39776
diffusivityModels::fixedDiffusivity: 
   diff0 = diff0 [0 2 -1 0 0 0 0] 2.11143e-05

fuelDiffModels[1]
  zone size = 19360
diffusivityModels::fixedDiffusivity: 
   diff0 = diff0 [0 2 -1 0 0 0 0] 7.465e-06

fuelDiffModels[2]
  zone size = 1936
diffusivityModels::fixedDiffusivity: 
   diff0 = diff0 [0 2 -1 0 0 0 0] 1.8885e-06

diffSpFuel[CO2]
    internalField min mean max = 1.8885e-06  1.353507e-05  2.11143e-05

airSpecies O2

airDiffModels[0]
  zone size = 39776
diffusivityModels::binaryFSG:
    diffusing speciesA molWt diffVol: O2 31.9988 16.3
   background speciesB molWt diffVol: N2 28.0134 18.5
diffusivityModels::binaryFSG:
    diffusing speciesA molWt diffVol: O2 31.9988 16.3
   background speciesB molWt diffVol: H2O 18.01534 13.1

airDiffModels[1]
  zone size = 19360
diffusivityModels::porousFSG:
    diffusing speciesA molWt diffVol:  O2 31.9988 16.3
    background speciesB molWt diffVol: N2 28.0134 18.5
    dPore      = dPore [0 1 0 0 0 0 0] 2.64e-05
    porosity   = 1
    tortuosity = 1.5
diffusivityModels::porousFSG:
    diffusing speciesA molWt diffVol:  O2 31.9988 16.3
    background speciesB molWt diffVol: H2O 18.01534 13.1
    dPore      = dPore [0 1 0 0 0 0 0] 2.64e-05
    porosity   = 1
    tortuosity = 1.5

airDiffModels[2]
  zone size = 1936
diffusivityModels::porousFSG:
    diffusing speciesA molWt diffVol:  O2 31.9988 16.3
    background speciesB molWt diffVol: N2 28.0134 18.5
    dPore      = dPore [0 1 0 0 0 0 0] 1.19e-07
    porosity   = 1
    tortuosity = 1.5
diffusivityModels::porousFSG:
    diffusing speciesA molWt diffVol:  O2 31.9988 16.3
    background speciesB molWt diffVol: H2O 18.01534 13.1
    dPore      = dPore [0 1 0 0 0 0 0] 1.19e-07
    porosity   = 1
    tortuosity = 1.5

diffSpAir[O2]
    internalField min mean max = 7.623986e-06  2.308059e-05  2.937293e-05

airSpecies H2O

airDiffModels[0]
  zone size = 39776
diffusivityModels::binaryFSG:
    diffusing speciesA molWt diffVol: H2O 18.01534 13.1
   background speciesB molWt diffVol: O2 31.9988 16.3
diffusivityModels::binaryFSG:
    diffusing speciesA molWt diffVol: H2O 18.01534 13.1
   background speciesB molWt diffVol: N2 28.0134 18.5

airDiffModels[1]
  zone size = 19360
diffusivityModels::porousFSG:
    diffusing speciesA molWt diffVol:  H2O 18.01534 13.1
    background speciesB molWt diffVol: O2 31.9988 16.3
    dPore      = dPore [0 1 0 0 0 0 0] 2.64e-05
    porosity   = 1
    tortuosity = 1.5
diffusivityModels::porousFSG:
    diffusing speciesA molWt diffVol:  H2O 18.01534 13.1
    background speciesB molWt diffVol: N2 28.0134 18.5
    dPore      = dPore [0 1 0 0 0 0 0] 2.64e-05
    porosity   = 1
    tortuosity = 1.5

airDiffModels[2]
  zone size = 1936
diffusivityModels::porousFSG:
    diffusing speciesA molWt diffVol:  H2O 18.01534 13.1
    background speciesB molWt diffVol: O2 31.9988 16.3
    dPore      = dPore [0 1 0 0 0 0 0] 1.19e-07
    porosity   = 1
    tortuosity = 1.5
diffusivityModels::porousFSG:
    diffusing speciesA molWt diffVol:  H2O 18.01534 13.1
    background speciesB molWt diffVol: N2 28.0134 18.5
    dPore      = dPore [0 1 0 0 0 0 0] 1.19e-07
    porosity   = 1
    tortuosity = 1.5

diffSpAir[H2O]
    internalField min mean max = 9.674246e-06  2.739111e-05  3.480863e-05

Solving air scalars
 Yair[0].name() = YO2air
DILUPBiCG:  Solving for YO2air, Initial residual = 0.1646017, Final residual = 2.106663e-10, No Iterations 32
 Yair[1].name() = YN2air
 Yair[2].name() = YH2Oair
DILUPBiCG:  Solving for YH2Oair, Initial residual = 0.1674293, Final residual = 5.259094e-10, No Iterations 32
inertIndex = 1
min,mean,max(YO2air): 0.1996677 , 0.1999707 , 0.2
min,mean,max(YN2air): 0.64999 , 0.6499988 , 0.6500033
min,mean,max(YH2Oair): 0.15 , 0.1500305 , 0.1503314

Solving fuel scalars
 Yfuel[0].name() = YCH3OHfuel
DILUPBiCG:  Solving for YCH3OHfuel, Initial residual = 0.1612975, Final residual = 3.939997e-10, No Iterations 29
 Yfuel[1].name() = YH2Ofuel
 Yfuel[2].name() = YCO2fuel
DILUPBiCG:  Solving for YCO2fuel, Initial residual = 0.1612926, Final residual = 3.885704e-10, No Iterations 29
inertIndex = 1
min,mean,max(YCH3OHfuel): 0.8995864 , 0.8999551 , 0.9
min,mean,max(YH2Ofuel): 0.09998843 , 0.09999875 , 0.1
min,mean,max(YCO2fuel): 1.000006e-15 , 4.614033e-05 , 0.0004251853

Solving electrochemistry
min,max(anodeT): 353.003 , 353.0134
min,max(cathodeT): 353.003 , 353.0133
min,mean,max(XCH3OH): 0.8347115 , 0.8348482 , 0.8349417
min,mean,max(XCO2): 6.012738e-05 , 0.000153616 , 0.0002903401
min,mean,max(XO2): 0.1651478 , 0.1653435 , 0.1654157
min,mean,max(XH2O): 0.2204769 , 0.2205783 , 0.220858
min,mean,max Nernst = 1.584112  1.587572  1.592104

min,max(pSatAnode): 47029.94 , 47049.69
min,max(pSatCathode): 47029.88 , 47049.63
min,mean,max(wActivityAnode): 0.3555514 , 0.3577154  0.3600384
min,mean,max(wActivityCathode): 0.4760534 , 0.4841336  0.492662
min,mean,max(a): 0.8316049 , 0.841849  0.8527004
min, mean, max (lambda): 7.475007 , 7.744695  8.037421
min,mean,max(sigma): 6.360075  6.610491  6.882265
min,mean,max (RiMem) = 1.845667e-05  1.922375e-05  1.996585e-05
min,mean,max (ASR)= 2.287546e-05 2.364254e-05 2.438464e-05
min,mean,max(concentrationO2)= 5.713033  5.85415  5.985298
min,mean,max(concentrationMe)= 28.83786  29.07487  29.29587
min,mean,max (cathodeT) = 353.003  353.0084  353.0133
min,mean,max (i0Ca) = 0.04178379  0.04179994  0.04181435
min,mean,max (anodeT) = 353.003  353.0085  353.0134
min,mean,max (i0An) = 93.77578  93.79345  93.8091
min,mean,max (iLCa) = 41575.99  42312.21  42954.19
min,mean,max (etaActCa) = 0.5532996  0.5549064  0.5572093
min,mean,max (etaActCa) = 0.2777832  0.2794598  0.2816725
min,mean,max (etaConCa) = 0.000770416  0.0008027281  0.0008206628
min,mean,max (etaOhmic) = 0.003026949  0.003206267  0.003259506

Solve current

layer 1

sumVolume: 6.1468e-08
min,max(Nernst): 1.584112 , 1.592104
    Ibar = 135.6439    V = 0.75

stack Voltage =0.75
min,mean,max(current): 132.0116 , 135.6439 , 140.7401

Calculating electrochemical heating
anodeEntropyChange  min max: -4.563554 -4.563514
cathodeEntropyChange  min max: 44.73112 44.7314
totalEntropyChange  min max: 40.1676 40.16784
totalEntropySource  min max: -14179.78 -14179.55  -14179.28
min,mean,max(electrochemicalHeating): 56729.86  58550.55  61093.72
fuel species electrochemical fluxes and YEqn BCs
s species[] isFlux[] mflux[] = 0 CH3OH true -0.007267007
s species[] isFlux[] mflux[] = 1 H2O false 0
s species[] isFlux[] mflux[] = 2 CO2 true 0.009981928


fuel mass rates: 
   inlet: 0.000298725   outlet: 0.0002955581   anode: 1.357461e-09
CH3OH mass rates: 
   inlet = 0.0002688525   outlet = 0.0002659979   chem = 3.633503e-09
      utilization by chemRate = 1.351486e-05
      utilization by outRate  = 0.01061763


air species electrochemical fluxes and YEqn BCs
s species[] isFlux[] mflux[] = 0 O2 true -0.0108869
s species[] isFlux[] mflux[] = 1 N2 false 0
s species[] isFlux[] mflux[] = 2 H2O true 0.01225865


air mass rates: 
   inlet: 0.00047985   outlet: 0.0004798611   cathode: 6.858748e-10
O2 mass rates: 
   inlet = 9.597e-05   outlet = 9.596704e-05   chem = 5.443451e-09
      utilization by chemRate = 5.672034e-05
      utilization by outRate  = 3.088389e-05

min mean max rhoCpF(fuel) = 1581.544 1594.773 1607.116


min mean max rhoCpF(air) = 1046.742 1072.541 1096.685
ELECTROLYTE FLUX MAPPING ACTIVATED
time step continuity errors : sum local = 0.001371201, global = 0.0005889898

Solving energy
--> FOAM Warning : 
    From function Foam::fv::gaussConvectionScheme<Type>::gaussConvectionScheme(const Foam::fvMesh&, const surfaceScalarField&, Foam::Istream&) [with Type = double; Foam::surfaceScalarField = Foam::GeometricField<double, Foam::fvsPatchField, Foam::surfaceMesh>]
    in file finiteVolume/convectionSchemes/gaussConvectionScheme/gaussConvectionScheme.H at line 124
    Reading "/home/fatima/OpenFOAM/fatima-4.0/run/pemfcSinglePhaseModel-4.0/run/system/fvSchemes.divSchemes.div(rhoCpPhi,T)" at line 31
    Unbounded 'Gauss' div scheme used in steady-state solver, use 'bounded Gauss' to ensure boundedness.
    To remove this warning switch off 'warnUnboundedGauss' in "/home/fatima/OpenFOAM/OpenFOAM-4.0/etc/controlDict"
DILUPBiCG:  Solving for T, Initial residual = 0.08702298, Final residual = 6.243416e-19, No Iterations 378
T min mean max     = 353    353.0054    353.014

 sum TcellEqn.source() =   0.009176931

ExecutionTime = 43.27 s


Time = 4

Tfuel min mean max = 353    353.0048    353.0138
Tair min mean max  = 353    353.0047    353.0138
min,mean,max(rhoFuel): 1.026533   1.032895   1.039625
min,mean,max(rhoAir): 0.9147426   0.931232   0.9486066
min,mean,max(muFuel): 1.153868e-05   1.153912e-05   1.154141e-05
min,mean,max(muAir): 1.947939e-05   1.948291e-05   1.948337e-05
min,mean,max(kFuel): 0.02024581   0.02024629   0.02024742
min,mean,max(kAir): 0.02918954   0.02919161   0.02919213

Solving air flow
--> FOAM Warning : 
    From function Foam::fv::gaussConvectionScheme<Type>::gaussConvectionScheme(const Foam::fvMesh&, const surfaceScalarField&, Foam::Istream&) [with Type = Foam::Vector<double>; Foam::surfaceScalarField = Foam::GeometricField<double, Foam::fvsPatchField, Foam::surfaceMesh>]
    in file finiteVolume/convectionSchemes/gaussConvectionScheme/gaussConvectionScheme.H at line 124
    Reading "/home/fatima/OpenFOAM/fatima-4.0/run/pemfcSinglePhaseModel-4.0/run/system/air/fvSchemes.divSchemes.div(phi,U)" at line 32
    Unbounded 'Gauss' div scheme used in steady-state solver, use 'bounded Gauss' to ensure boundedness.
    To remove this warning switch off 'warnUnboundedGauss' in "/home/fatima/OpenFOAM/OpenFOAM-4.0/etc/controlDict"
DILUPBiCG:  Solving for Ux, Initial residual = 0.1544988, Final residual = 6.168921e-10, No Iterations 7
DILUPBiCG:  Solving for Uy, Initial residual = 0.2060469, Final residual = 5.990893e-11, No Iterations 8
DILUPBiCG:  Solving for Uz, Initial residual = 0.1070866, Final residual = 9.266301e-10, No Iterations 7
DICPCG:  Solving for p, Initial residual = 0.2891892, Final residual = 8.886382e-10, No Iterations 213
time step continuity errors : sum local = 4.852356e-06, global = -1.940484e-08
DICPCG:  Solving for p, Initial residual = 0.3244694, Final residual = 9.198825e-10, No Iterations 212
time step continuity errors : sum local = 2.570131e-06, global = -3.233069e-09

Solving fuel flow
--> FOAM Warning : 
    From function Foam::fv::gaussConvectionScheme<Type>::gaussConvectionScheme(const Foam::fvMesh&, const surfaceScalarField&, Foam::Istream&) [with Type = Foam::Vector<double>; Foam::surfaceScalarField = Foam::GeometricField<double, Foam::fvsPatchField, Foam::surfaceMesh>]
    in file finiteVolume/convectionSchemes/gaussConvectionScheme/gaussConvectionScheme.H at line 124
    Reading "/home/fatima/OpenFOAM/fatima-4.0/run/pemfcSinglePhaseModel-4.0/run/system/fuel/fvSchemes.divSchemes.div(phi,U)" at line 32
    Unbounded 'Gauss' div scheme used in steady-state solver, use 'bounded Gauss' to ensure boundedness.
    To remove this warning switch off 'warnUnboundedGauss' in "/home/fatima/OpenFOAM/OpenFOAM-4.0/etc/controlDict"
DILUPBiCG:  Solving for Ux, Initial residual = 0.1600139, Final residual = 1.954631e-10, No Iterations 8
DILUPBiCG:  Solving for Uy, Initial residual = 0.2163069, Final residual = 3.661856e-10, No Iterations 7
DILUPBiCG:  Solving for Uz, Initial residual = 0.1098686, Final residual = 8.850235e-10, No Iterations 7
DICPCG:  Solving for p, Initial residual = 0.3021921, Final residual = 9.506671e-10, No Iterations 196
time step continuity errors : sum local = 3.732433e-06, global = 1.10928e-08
DICPCG:  Solving for p, Initial residual = 0.3505124, Final residual = 6.889316e-10, No Iterations 198
time step continuity errors : sum local = 2.31317e-06, global = 2.495329e-09
ReFuel = 1232.809
ReAir  = 1172.813

fuelSpecies CH3OH

fuelDiffModels[0]
  zone size = 39776
diffusivityModels::fixedDiffusivity: 
   diff0 = diff0 [0 2 -1 0 0 0 0] 2.11143e-05

fuelDiffModels[1]
  zone size = 19360
diffusivityModels::fixedDiffusivity: 
   diff0 = diff0 [0 2 -1 0 0 0 0] 7.465e-06

fuelDiffModels[2]
  zone size = 1936
diffusivityModels::fixedDiffusivity: 
   diff0 = diff0 [0 2 -1 0 0 0 0] 1.8885e-06

diffSpFuel[CH3OH]
    internalField min mean max = 1.8885e-06  1.353507e-05  2.11143e-05

fuelSpecies CO2

fuelDiffModels[0]
  zone size = 39776
diffusivityModels::fixedDiffusivity: 
   diff0 = diff0 [0 2 -1 0 0 0 0] 2.11143e-05

fuelDiffModels[1]
  zone size = 19360
diffusivityModels::fixedDiffusivity: 
   diff0 = diff0 [0 2 -1 0 0 0 0] 7.465e-06

fuelDiffModels[2]
  zone size = 1936
diffusivityModels::fixedDiffusivity: 
   diff0 = diff0 [0 2 -1 0 0 0 0] 1.8885e-06

diffSpFuel[CO2]
    internalField min mean max = 1.8885e-06  1.353507e-05  2.11143e-05

airSpecies O2

airDiffModels[0]
  zone size = 39776
diffusivityModels::binaryFSG:
    diffusing speciesA molWt diffVol: O2 31.9988 16.3
   background speciesB molWt diffVol: N2 28.0134 18.5
diffusivityModels::binaryFSG:
    diffusing speciesA molWt diffVol: O2 31.9988 16.3
   background speciesB molWt diffVol: H2O 18.01534 13.1

airDiffModels[1]
  zone size = 19360
diffusivityModels::porousFSG:
    diffusing speciesA molWt diffVol:  O2 31.9988 16.3
    background speciesB molWt diffVol: N2 28.0134 18.5
    dPore      = dPore [0 1 0 0 0 0 0] 2.64e-05
    porosity   = 1
    tortuosity = 1.5
diffusivityModels::porousFSG:
    diffusing speciesA molWt diffVol:  O2 31.9988 16.3
    background speciesB molWt diffVol: H2O 18.01534 13.1
    dPore      = dPore [0 1 0 0 0 0 0] 2.64e-05
    porosity   = 1
    tortuosity = 1.5

airDiffModels[2]
  zone size = 1936
diffusivityModels::porousFSG:
    diffusing speciesA molWt diffVol:  O2 31.9988 16.3
    background speciesB molWt diffVol: N2 28.0134 18.5
    dPore      = dPore [0 1 0 0 0 0 0] 1.19e-07
    porosity   = 1
    tortuosity = 1.5
diffusivityModels::porousFSG:
    diffusing speciesA molWt diffVol:  O2 31.9988 16.3
    background speciesB molWt diffVol: H2O 18.01534 13.1
    dPore      = dPore [0 1 0 0 0 0 0] 1.19e-07
    porosity   = 1
    tortuosity = 1.5

diffSpAir[O2]
    internalField min mean max = 7.696218e-06  2.338042e-05  2.938343e-05

airSpecies H2O

airDiffModels[0]
  zone size = 39776
diffusivityModels::binaryFSG:
    diffusing speciesA molWt diffVol: H2O 18.01534 13.1
   background speciesB molWt diffVol: O2 31.9988 16.3
diffusivityModels::binaryFSG:
    diffusing speciesA molWt diffVol: H2O 18.01534 13.1
   background speciesB molWt diffVol: N2 28.0134 18.5

airDiffModels[1]
  zone size = 19360
diffusivityModels::porousFSG:
    diffusing speciesA molWt diffVol:  H2O 18.01534 13.1
    background speciesB molWt diffVol: O2 31.9988 16.3
    dPore      = dPore [0 1 0 0 0 0 0] 2.64e-05
    porosity   = 1
    tortuosity = 1.5
diffusivityModels::porousFSG:
    diffusing speciesA molWt diffVol:  H2O 18.01534 13.1
    background speciesB molWt diffVol: N2 28.0134 18.5
    dPore      = dPore [0 1 0 0 0 0 0] 2.64e-05
    porosity   = 1
    tortuosity = 1.5

airDiffModels[2]
  zone size = 1936
diffusivityModels::porousFSG:
    diffusing speciesA molWt diffVol:  H2O 18.01534 13.1
    background speciesB molWt diffVol: O2 31.9988 16.3
    dPore      = dPore [0 1 0 0 0 0 0] 1.19e-07
    porosity   = 1
    tortuosity = 1.5
diffusivityModels::porousFSG:
    diffusing speciesA molWt diffVol:  H2O 18.01534 13.1
    background speciesB molWt diffVol: N2 28.0134 18.5
    dPore      = dPore [0 1 0 0 0 0 0] 1.19e-07
    porosity   = 1
    tortuosity = 1.5

diffSpAir[H2O]
    internalField min mean max = 9.772562e-06  2.774735e-05  3.482108e-05

Solving air scalars
 Yair[0].name() = YO2air
DILUPBiCG:  Solving for YO2air, Initial residual = 0.05816072, Final residual = 4.945471e-10, No Iterations 30
 Yair[1].name() = YN2air
 Yair[2].name() = YH2Oair
DILUPBiCG:  Solving for YH2Oair, Initial residual = 0.05822692, Final residual = 9.381107e-10, No Iterations 30
inertIndex = 1
min,mean,max(YO2air): 0.1996519 , 0.1999705 , 0.2
min,mean,max(YN2air): 0.6499902 , 0.6499989 , 0.6500038
min,mean,max(YH2Oair): 0.15 , 0.1500306 , 0.1503456

Solving fuel scalars
 Yfuel[0].name() = YCH3OHfuel
DILUPBiCG:  Solving for YCH3OHfuel, Initial residual = 0.06363991, Final residual = 6.659493e-10, No Iterations 30
 Yfuel[1].name() = YH2Ofuel
 Yfuel[2].name() = YCO2fuel
DILUPBiCG:  Solving for YCO2fuel, Initial residual = 0.06362699, Final residual = 6.68796e-10, No Iterations 30
inertIndex = 1
min,mean,max(YCH3OHfuel): 0.8996386 , 0.8999543 , 0.9
min,mean,max(YH2Ofuel): 0.09998989 , 0.09999872 , 0.1
min,mean,max(YCO2fuel): 1e-15 , 4.699593e-05 , 0.0003715463

Solving electrochemistry
min,max(anodeT): 353.003 , 353.0139
min,max(cathodeT): 353.003 , 353.0138
min,mean,max(XCH3OH): 0.8347476 , 0.8348419 , 0.8349381
min,mean,max(XCO2): 6.37392e-05 , 0.0001599912 , 0.0002542373
min,mean,max(XO2): 0.1651332 , 0.1653413 , 0.1654136
min,mean,max(XH2O): 0.2204797 , 0.2205809 , 0.2208767
min,mean,max Nernst = 1.584779  1.587359  1.591808

min,max(pSatAnode): 47029.98 , 47050.65
min,max(pSatCathode): 47029.93 , 47050.59
min,mean,max(wActivityAnode): 0.355508 , 0.3561204  0.3571434
min,mean,max(wActivityCathode): 0.4758829 , 0.4778009  0.4811937
min,mean,max(a): 0.8313998 , 0.8339213  0.8383371
min, mean, max (lambda): 7.469762 , 7.534786  7.649563
min,mean,max(sigma): 6.355161  6.415337  6.521693
min,mean,max (RiMem) = 1.947587e-05  1.979755e-05  1.998169e-05
min,mean,max (ASR)= 2.389466e-05 2.421634e-05 2.440048e-05
min,mean,max(concentrationO2)= 5.715064  5.816168  5.922542
min,mean,max(concentrationMe)= 28.83421  29.00765  29.19334
min,mean,max (cathodeT) = 353.003  353.0084  353.0138
min,mean,max (i0Ca) = 0.04178387  0.04179978  0.04181582
min,mean,max (anodeT) = 353.003  353.0084  353.0139
min,mean,max (i0An) = 93.77585  93.79328  93.81071
min,mean,max (iLCa) = 41594.37  42258.64  42906.49
min,mean,max (etaActCa) = 0.5529258  0.5543342  0.5565508
min,mean,max (etaActCa) = 0.2785951  0.2797373  0.2818933
min,mean,max (etaConCa) = 0.0007790749  0.0008045803  0.0008217218
min,mean,max (etaOhmic) = 0.003191785  0.003287973  0.003368202

Solve current

layer 1

sumVolume: 6.1468e-08
min,max(Nernst): 1.584779 , 1.591808
    Ibar = 135.784    V = 0.75

stack Voltage =0.75
min,mean,max(current): 133.0886 , 135.784 , 140.7359

Calculating electrochemical heating
anodeEntropyChange  min max: -4.563556 -4.563514
cathodeEntropyChange  min max: 44.73112 44.73141
totalEntropyChange  min max: 40.16761 40.16785
totalEntropySource  min max: -14179.81 -14179.55  -14179.29
min,mean,max(electrochemicalHeating): 57175.32  58541.47  61016.02
fuel species electrochemical fluxes and YEqn BCs
s species[] isFlux[] mflux[] = 0 CH3OH true -0.007274513
s species[] isFlux[] mflux[] = 1 H2O false 0
s species[] isFlux[] mflux[] = 2 CO2 true 0.009992239


fuel mass rates: 
   inlet: 0.000298725   outlet: 0.0003150973   anode: 1.358863e-09
CH3OH mass rates: 
   inlet = 0.0002688525   outlet = 0.0002835826   chem = 3.637257e-09
      utilization by chemRate = 1.352882e-05
      utilization by outRate  = -0.05478889


air species electrochemical fluxes and YEqn BCs
s species[] isFlux[] mflux[] = 0 O2 true -0.01089815
s species[] isFlux[] mflux[] = 1 N2 false 0
s species[] isFlux[] mflux[] = 2 H2O true 0.01227131


air mass rates: 
   inlet: 0.00047985   outlet: 0.0005097165   cathode: 6.865833e-10
O2 mass rates: 
   inlet = 9.597e-05   outlet = 0.0001019376   chem = 5.449074e-09
      utilization by chemRate = 5.677893e-05
      utilization by outRate  = -0.0621817

min mean max rhoCpF(fuel) = 1581.479 1591.246 1601.634


min mean max rhoCpF(air) = 1046.571 1065.464 1085.315
ELECTROLYTE FLUX MAPPING ACTIVATED
time step continuity errors : sum local = 0.001410504, global = 0.0006048163

Solving energy
--> FOAM Warning : 
    From function Foam::fv::gaussConvectionScheme<Type>::gaussConvectionScheme(const Foam::fvMesh&, const surfaceScalarField&, Foam::Istream&) [with Type = double; Foam::surfaceScalarField = Foam::GeometricField<double, Foam::fvsPatchField, Foam::surfaceMesh>]
    in file finiteVolume/convectionSchemes/gaussConvectionScheme/gaussConvectionScheme.H at line 124
    Reading "/home/fatima/OpenFOAM/fatima-4.0/run/pemfcSinglePhaseModel-4.0/run/system/fvSchemes.divSchemes.div(rhoCpPhi,T)" at line 31
    Unbounded 'Gauss' div scheme used in steady-state solver, use 'bounded Gauss' to ensure boundedness.
    To remove this warning switch off 'warnUnboundedGauss' in "/home/fatima/OpenFOAM/OpenFOAM-4.0/etc/controlDict"
DILUPBiCG:  Solving for T, Initial residual = 0.0653841, Final residual = 8.464944e-19, No Iterations 386
T min mean max     = 353    353.0053    353.0138

 sum TcellEqn.source() =   0.00934328

ExecutionTime = 57.42 s


Time = 5

Tfuel min mean max = 353    353.0047    353.0136
Tair min mean max  = 353    353.0046    353.0136
min,mean,max(rhoFuel): 1.026412   1.028285   1.031252
min,mean,max(rhoAir): 0.9144161   0.9190308   0.9265283
min,mean,max(muFuel): 1.153868e-05   1.153912e-05   1.154136e-05
min,mean,max(muAir): 1.947922e-05   1.948291e-05   1.948337e-05
min,mean,max(kFuel): 0.02024581   0.02024629   0.02024742
min,mean,max(kAir): 0.02918944   0.02919161   0.02919211

Solving air flow
--> FOAM Warning : 
    From function Foam::fv::gaussConvectionScheme<Type>::gaussConvectionScheme(const Foam::fvMesh&, const surfaceScalarField&, Foam::Istream&) [with Type = Foam::Vector<double>; Foam::surfaceScalarField = Foam::GeometricField<double, Foam::fvsPatchField, Foam::surfaceMesh>]
    in file finiteVolume/convectionSchemes/gaussConvectionScheme/gaussConvectionScheme.H at line 124
    Reading "/home/fatima/OpenFOAM/fatima-4.0/run/pemfcSinglePhaseModel-4.0/run/system/air/fvSchemes.divSchemes.div(phi,U)" at line 32
    Unbounded 'Gauss' div scheme used in steady-state solver, use 'bounded Gauss' to ensure boundedness.
    To remove this warning switch off 'warnUnboundedGauss' in "/home/fatima/OpenFOAM/OpenFOAM-4.0/etc/controlDict"
DILUPBiCG:  Solving for Ux, Initial residual = 0.1074519, Final residual = 8.186861e-10, No Iterations 7
DILUPBiCG:  Solving for Uy, Initial residual = 0.1282487, Final residual = 6.803195e-10, No Iterations 7
DILUPBiCG:  Solving for Uz, Initial residual = 0.03525613, Final residual = 4.556735e-11, No Iterations 8
DICPCG:  Solving for p, Initial residual = 0.4834559, Final residual = 8.762608e-10, No Iterations 219
time step continuity errors : sum local = 2.593392e-06, global = -2.162374e-09
DICPCG:  Solving for p, Initial residual = 0.2820112, Final residual = 9.71769e-10, No Iterations 214
time step continuity errors : sum local = 2.847461e-06, global = 5.938336e-09

Solving fuel flow
--> FOAM Warning : 
    From function Foam::fv::gaussConvectionScheme<Type>::gaussConvectionScheme(const Foam::fvMesh&, const surfaceScalarField&, Foam::Istream&) [with Type = Foam::Vector<double>; Foam::surfaceScalarField = Foam::GeometricField<double, Foam::fvsPatchField, Foam::surfaceMesh>]
    in file finiteVolume/convectionSchemes/gaussConvectionScheme/gaussConvectionScheme.H at line 124
    Reading "/home/fatima/OpenFOAM/fatima-4.0/run/pemfcSinglePhaseModel-4.0/run/system/fuel/fvSchemes.divSchemes.div(phi,U)" at line 32
    Unbounded 'Gauss' div scheme used in steady-state solver, use 'bounded Gauss' to ensure boundedness.
    To remove this warning switch off 'warnUnboundedGauss' in "/home/fatima/OpenFOAM/OpenFOAM-4.0/etc/controlDict"
DILUPBiCG:  Solving for Ux, Initial residual = 0.1136072, Final residual = 7.229833e-10, No Iterations 7
DILUPBiCG:  Solving for Uy, Initial residual = 0.1399503, Final residual = 2.156916e-10, No Iterations 7
DILUPBiCG:  Solving for Uz, Initial residual = 0.03627718, Final residual = 2.607091e-10, No Iterations 7
DICPCG:  Solving for p, Initial residual = 0.5029436, Final residual = 9.812719e-10, No Iterations 199
time step continuity errors : sum local = 2.642752e-06, global = 1.105207e-09
DICPCG:  Solving for p, Initial residual = 0.3006129, Final residual = 9.195743e-10, No Iterations 198
time step continuity errors : sum local = 2.581755e-06, global = -6.756035e-10
ReFuel = 1232.809
ReAir  = 1172.813

fuelSpecies CH3OH

fuelDiffModels[0]
  zone size = 39776
diffusivityModels::fixedDiffusivity: 
   diff0 = diff0 [0 2 -1 0 0 0 0] 2.11143e-05

fuelDiffModels[1]
  zone size = 19360
diffusivityModels::fixedDiffusivity: 
   diff0 = diff0 [0 2 -1 0 0 0 0] 7.465e-06

fuelDiffModels[2]
  zone size = 1936
diffusivityModels::fixedDiffusivity: 
   diff0 = diff0 [0 2 -1 0 0 0 0] 1.8885e-06

diffSpFuel[CH3OH]
    internalField min mean max = 1.8885e-06  1.353507e-05  2.11143e-05

fuelSpecies CO2

fuelDiffModels[0]
  zone size = 39776
diffusivityModels::fixedDiffusivity: 
   diff0 = diff0 [0 2 -1 0 0 0 0] 2.11143e-05

fuelDiffModels[1]
  zone size = 19360
diffusivityModels::fixedDiffusivity: 
   diff0 = diff0 [0 2 -1 0 0 0 0] 7.465e-06

fuelDiffModels[2]
  zone size = 1936
diffusivityModels::fixedDiffusivity: 
   diff0 = diff0 [0 2 -1 0 0 0 0] 1.8885e-06

diffSpFuel[CO2]
    internalField min mean max = 1.8885e-06  1.353507e-05  2.11143e-05

airSpecies O2

airDiffModels[0]
  zone size = 39776
diffusivityModels::binaryFSG:
    diffusing speciesA molWt diffVol: O2 31.9988 16.3
   background speciesB molWt diffVol: N2 28.0134 18.5
diffusivityModels::binaryFSG:
    diffusing speciesA molWt diffVol: O2 31.9988 16.3
   background speciesB molWt diffVol: H2O 18.01534 13.1

airDiffModels[1]
  zone size = 19360
diffusivityModels::porousFSG:
    diffusing speciesA molWt diffVol:  O2 31.9988 16.3
    background speciesB molWt diffVol: N2 28.0134 18.5
    dPore      = dPore [0 1 0 0 0 0 0] 2.64e-05
    porosity   = 1
    tortuosity = 1.5
diffusivityModels::porousFSG:
    diffusing speciesA molWt diffVol:  O2 31.9988 16.3
    background speciesB molWt diffVol: H2O 18.01534 13.1
    dPore      = dPore [0 1 0 0 0 0 0] 2.64e-05
    porosity   = 1
    tortuosity = 1.5

airDiffModels[2]
  zone size = 1936
diffusivityModels::porousFSG:
    diffusing speciesA molWt diffVol:  O2 31.9988 16.3
    background speciesB molWt diffVol: N2 28.0134 18.5
    dPore      = dPore [0 1 0 0 0 0 0] 1.19e-07
    porosity   = 1
    tortuosity = 1.5
diffusivityModels::porousFSG:
    diffusing speciesA molWt diffVol:  O2 31.9988 16.3
    background speciesB molWt diffVol: H2O 18.01534 13.1
    dPore      = dPore [0 1 0 0 0 0 0] 1.19e-07
    porosity   = 1
    tortuosity = 1.5

diffSpAir[O2]
    internalField min mean max = 7.732625e-06  2.360406e-05  2.960245e-05

airSpecies H2O

airDiffModels[0]
  zone size = 39776
diffusivityModels::binaryFSG:
    diffusing speciesA molWt diffVol: H2O 18.01534 13.1
   background speciesB molWt diffVol: O2 31.9988 16.3
diffusivityModels::binaryFSG:
    diffusing speciesA molWt diffVol: H2O 18.01534 13.1
   background speciesB molWt diffVol: N2 28.0134 18.5

airDiffModels[1]
  zone size = 19360
diffusivityModels::porousFSG:
    diffusing speciesA molWt diffVol:  H2O 18.01534 13.1
    background speciesB molWt diffVol: O2 31.9988 16.3
    dPore      = dPore [0 1 0 0 0 0 0] 2.64e-05
    porosity   = 1
    tortuosity = 1.5
diffusivityModels::porousFSG:
    diffusing speciesA molWt diffVol:  H2O 18.01534 13.1
    background speciesB molWt diffVol: N2 28.0134 18.5
    dPore      = dPore [0 1 0 0 0 0 0] 2.64e-05
    porosity   = 1
    tortuosity = 1.5

airDiffModels[2]
  zone size = 1936
diffusivityModels::porousFSG:
    diffusing speciesA molWt diffVol:  H2O 18.01534 13.1
    background speciesB molWt diffVol: O2 31.9988 16.3
    dPore      = dPore [0 1 0 0 0 0 0] 1.19e-07
    porosity   = 1
    tortuosity = 1.5
diffusivityModels::porousFSG:
    diffusing speciesA molWt diffVol:  H2O 18.01534 13.1
    background speciesB molWt diffVol: N2 28.0134 18.5
    dPore      = dPore [0 1 0 0 0 0 0] 1.19e-07
    porosity   = 1
    tortuosity = 1.5

diffSpAir[H2O]
    internalField min mean max = 9.821899e-06  2.80128e-05  3.508063e-05

Solving air scalars
 Yair[0].name() = YO2air
DILUPBiCG:  Solving for YO2air, Initial residual = 0.03569511, Final residual = 8.652902e-11, No Iterations 32
 Yair[1].name() = YN2air
 Yair[2].name() = YH2Oair
DILUPBiCG:  Solving for YH2Oair, Initial residual = 0.03555944, Final residual = 7.577744e-10, No Iterations 31
inertIndex = 1
min,mean,max(YO2air): 0.1996592 , 0.1999701 , 0.2
min,mean,max(YN2air): 0.6499901 , 0.6499989 , 0.6500042
min,mean,max(YH2Oair): 0.15 , 0.150031 , 0.1503377

Solving fuel scalars
 Yfuel[0].name() = YCH3OHfuel
DILUPBiCG:  Solving for YCH3OHfuel, Initial residual = 0.03617868, Final residual = 2.065941e-11, No Iterations 31
 Yfuel[1].name() = YH2Ofuel
 Yfuel[2].name() = YCO2fuel
DILUPBiCG:  Solving for YCO2fuel, Initial residual = 0.03616512, Final residual = 1.369892e-10, No Iterations 30
inertIndex = 1
min,mean,max(YCH3OHfuel): 0.8996263 , 0.8999534 , 0.9
min,mean,max(YH2Ofuel): 0.09998955 , 0.0999987 , 0.1
min,mean,max(YCO2fuel): 1e-15 , 4.792328e-05 , 0.0003841948

Solving electrochemistry
min,max(anodeT): 353.003 , 353.0137
min,max(cathodeT): 353.0029 , 353.0137
min,mean,max(XCH3OH): 0.8347391 , 0.8348382 , 0.834934
min,mean,max(XCO2): 6.788582e-05 , 0.0001636063 , 0.0002627871
min,mean,max(XO2): 0.1651401 , 0.1653395 , 0.165412
min,mean,max(XH2O): 0.2204818 , 0.2205831 , 0.2208663
min,mean,max Nernst = 1.58461  1.587233  1.591489

min,max(pSatAnode): 47029.83 , 47050.35
min,max(pSatCathode): 47029.77 , 47050.29
min,mean,max(wActivityAnode): 0.3546312 , 0.3549318  0.3555103
min,mean,max(wActivityCathode): 0.4718141 , 0.4732247  0.4758197
min,mean,max(a): 0.8264453 , 0.8281564  0.8313019
min, mean, max (lambda): 7.344297 , 7.387463  7.46726
min,mean,max(sigma): 6.238025  6.278362  6.352883
min,mean,max (RiMem) = 1.999299e-05  2.02288e-05  2.035557e-05
min,mean,max (ASR)= 2.441177e-05 2.464759e-05 2.477436e-05
min,mean,max(concentrationO2)= 5.713054  5.739935  5.784574
min,mean,max(concentrationMe)= 28.83097  28.87817  28.95843
min,mean,max (cathodeT) = 353.0029  353.0082  353.0137
min,mean,max (i0Ca) = 0.04178362  0.04179926  0.04181536
min,mean,max (anodeT) = 353.003  353.0083  353.0137
min,mean,max (i0An) = 93.77559  93.79271  93.8102
min,mean,max (iLCa) = 41586.08  41864.55  42214.83
min,mean,max (etaActCa) = 0.5519681  0.5533  0.5553722
min,mean,max (etaActCa) = 0.2793729  0.2805665  0.2826253
min,mean,max (etaConCa) = 0.0008001702  0.000816878  0.0008386485
min,mean,max (etaOhmic) = 0.00326697  0.003366345  0.003495766

Solve current

layer 1

sumVolume: 6.1468e-08
min,max(Nernst): 1.58461 , 1.591489
    Ibar = 136.5732    V = 0.75

stack Voltage =0.75
min,mean,max(current): 133.8068 , 136.5732 , 141.305

Calculating electrochemical heating
anodeEntropyChange  min max: -4.563556 -4.563513
cathodeEntropyChange  min max: 44.73112 44.73141
totalEntropyChange  min max: 40.1676 40.16785
totalEntropySource  min max: -14179.8 -14179.54  -14179.28
min,mean,max(electrochemicalHeating): 57352.95  58746.62  61109.92
fuel species electrochemical fluxes and YEqn BCs
s species[] isFlux[] mflux[] = 0 CH3OH true -0.007316795
s species[] isFlux[] mflux[] = 1 H2O false 0
s species[] isFlux[] mflux[] = 2 CO2 true 0.01005032


fuel mass rates: 
   inlet: 0.000298725   outlet: 0.0003074371   anode: 1.366761e-09
CH3OH mass rates: 
   inlet = 0.0002688525   outlet = 0.0002766885   chem = 3.658398e-09
      utilization by chemRate = 1.360745e-05
      utilization by outRate  = -0.02914593


air species electrochemical fluxes and YEqn BCs
s species[] isFlux[] mflux[] = 0 O2 true -0.01096149
s species[] isFlux[] mflux[] = 1 N2 false 0
s species[] isFlux[] mflux[] = 2 H2O true 0.01234264


air mass rates: 
   inlet: 0.00047985   outlet: 0.0004948698   cathode: 6.905739e-10
O2 mass rates: 
   inlet = 9.597e-05   outlet = 9.896829e-05   chem = 5.480745e-09
      utilization by chemRate = 5.710894e-05
      utilization by outRate  = -0.03124196

min mean max rhoCpF(fuel) = 1581.293 1584.143 1588.734


min mean max rhoCpF(air) = 1046.198 1051.504 1060.055
ELECTROLYTE FLUX MAPPING ACTIVATED
time step continuity errors : sum local = 0.001408092, global = 0.0006032158

Solving energy
--> FOAM Warning : 
    From function Foam::fv::gaussConvectionScheme<Type>::gaussConvectionScheme(const Foam::fvMesh&, const surfaceScalarField&, Foam::Istream&) [with Type = double; Foam::surfaceScalarField = Foam::GeometricField<double, Foam::fvsPatchField, Foam::surfaceMesh>]
    in file finiteVolume/convectionSchemes/gaussConvectionScheme/gaussConvectionScheme.H at line 124
    Reading "/home/fatima/OpenFOAM/fatima-4.0/run/pemfcSinglePhaseModel-4.0/run/system/fvSchemes.divSchemes.div(rhoCpPhi,T)" at line 31
    Unbounded 'Gauss' div scheme used in steady-state solver, use 'bounded Gauss' to ensure boundedness.
    To remove this warning switch off 'warnUnboundedGauss' in "/home/fatima/OpenFOAM/OpenFOAM-4.0/etc/controlDict"
DILUPBiCG:  Solving for T, Initial residual = 0.04571832, Final residual = 2.026565e-19, No Iterations 392
T min mean max     = 353    353.0054    353.014

 sum TcellEqn.source() =   0.009344898

ExecutionTime = 72.5 s


Time = 6

Tfuel min mean max = 353    353.0048    353.0138
Tair min mean max  = 353    353.0047    353.0138
min,mean,max(rhoFuel): 1.023778   1.024843   1.026724
min,mean,max(rhoAir): 0.907625   0.9102072   0.9148688
min,mean,max(muFuel): 1.153868e-05   1.153913e-05   1.154144e-05
min,mean,max(muAir): 1.947931e-05   1.948291e-05   1.948338e-05
min,mean,max(kFuel): 0.02024581   0.02024629   0.02024744
min,mean,max(kAir): 0.0291895   0.02919161   0.02919212

Solving air flow
--> FOAM Warning : 
    From function Foam::fv::gaussConvectionScheme<Type>::gaussConvectionScheme(const Foam::fvMesh&, const surfaceScalarField&, Foam::Istream&) [with Type = Foam::Vector<double>; Foam::surfaceScalarField = Foam::GeometricField<double, Foam::fvsPatchField, Foam::surfaceMesh>]
    in file finiteVolume/convectionSchemes/gaussConvectionScheme/gaussConvectionScheme.H at line 124
    Reading "/home/fatima/OpenFOAM/fatima-4.0/run/pemfcSinglePhaseModel-4.0/run/system/air/fvSchemes.divSchemes.div(phi,U)" at line 32
    Unbounded 'Gauss' div scheme used in steady-state solver, use 'bounded Gauss' to ensure boundedness.
    To remove this warning switch off 'warnUnboundedGauss' in "/home/fatima/OpenFOAM/OpenFOAM-4.0/etc/controlDict"
DILUPBiCG:  Solving for Ux, Initial residual = 0.07620948, Final residual = 5.828599e-10, No Iterations 7
DILUPBiCG:  Solving for Uy, Initial residual = 0.0959049, Final residual = 3.59642e-10, No Iterations 7
DILUPBiCG:  Solving for Uz, Initial residual = 0.03324396, Final residual = 7.78768e-12, No Iterations 8
DICPCG:  Solving for p, Initial residual = 0.4761244, Final residual = 8.427749e-10, No Iterations 217
time step continuity errors : sum local = 2.392996e-06, global = 8.8045e-09
DICPCG:  Solving for p, Initial residual = 0.2713228, Final residual = 9.12399e-10, No Iterations 210
time step continuity errors : sum local = 2.732066e-06, global = 9.919872e-09

Solving fuel flow
--> FOAM Warning : 
    From function Foam::fv::gaussConvectionScheme<Type>::gaussConvectionScheme(const Foam::fvMesh&, const surfaceScalarField&, Foam::Istream&) [with Type = Foam::Vector<double>; Foam::surfaceScalarField = Foam::GeometricField<double, Foam::fvsPatchField, Foam::surfaceMesh>]
    in file finiteVolume/convectionSchemes/gaussConvectionScheme/gaussConvectionScheme.H at line 124
    Reading "/home/fatima/OpenFOAM/fatima-4.0/run/pemfcSinglePhaseModel-4.0/run/system/fuel/fvSchemes.divSchemes.div(phi,U)" at line 32
    Unbounded 'Gauss' div scheme used in steady-state solver, use 'bounded Gauss' to ensure boundedness.
    To remove this warning switch off 'warnUnboundedGauss' in "/home/fatima/OpenFOAM/OpenFOAM-4.0/etc/controlDict"
DILUPBiCG:  Solving for Ux, Initial residual = 0.07635756, Final residual = 6.091585e-11, No Iterations 8
DILUPBiCG:  Solving for Uy, Initial residual = 0.1009777, Final residual = 2.122274e-10, No Iterations 7
DILUPBiCG:  Solving for Uz, Initial residual = 0.03336876, Final residual = 4.798206e-10, No Iterations 7
DICPCG:  Solving for p, Initial residual = 0.4781286, Final residual = 9.409008e-10, No Iterations 204
time step continuity errors : sum local = 2.549544e-06, global = 8.760446e-09
DICPCG:  Solving for p, Initial residual = 0.2675015, Final residual = 9.242015e-10, No Iterations 198
time step continuity errors : sum local = 2.629779e-06, global = 8.21173e-09
ReFuel = 1232.809
ReAir  = 1172.813

fuelSpecies CH3OH

fuelDiffModels[0]
  zone size = 39776
diffusivityModels::fixedDiffusivity: 
   diff0 = diff0 [0 2 -1 0 0 0 0] 2.11143e-05

fuelDiffModels[1]
  zone size = 19360
diffusivityModels::fixedDiffusivity: 
   diff0 = diff0 [0 2 -1 0 0 0 0] 7.465e-06

fuelDiffModels[2]
  zone size = 1936
diffusivityModels::fixedDiffusivity: 
   diff0 = diff0 [0 2 -1 0 0 0 0] 1.8885e-06

diffSpFuel[CH3OH]
    internalField min mean max = 1.8885e-06  1.353507e-05  2.11143e-05

fuelSpecies CO2

fuelDiffModels[0]
  zone size = 39776
diffusivityModels::fixedDiffusivity: 
   diff0 = diff0 [0 2 -1 0 0 0 0] 2.11143e-05

fuelDiffModels[1]
  zone size = 19360
diffusivityModels::fixedDiffusivity: 
   diff0 = diff0 [0 2 -1 0 0 0 0] 7.465e-06

fuelDiffModels[2]
  zone size = 1936
diffusivityModels::fixedDiffusivity: 
   diff0 = diff0 [0 2 -1 0 0 0 0] 1.8885e-06

diffSpFuel[CO2]
    internalField min mean max = 1.8885e-06  1.353507e-05  2.11143e-05

airSpecies O2

airDiffModels[0]
  zone size = 39776
diffusivityModels::binaryFSG:
    diffusing speciesA molWt diffVol: O2 31.9988 16.3
   background speciesB molWt diffVol: N2 28.0134 18.5
diffusivityModels::binaryFSG:
    diffusing speciesA molWt diffVol: O2 31.9988 16.3
   background speciesB molWt diffVol: H2O 18.01534 13.1

airDiffModels[1]
  zone size = 19360
diffusivityModels::porousFSG:
    diffusing speciesA molWt diffVol:  O2 31.9988 16.3
    background speciesB molWt diffVol: N2 28.0134 18.5
    dPore      = dPore [0 1 0 0 0 0 0] 2.64e-05
    porosity   = 1
    tortuosity = 1.5
diffusivityModels::porousFSG:
    diffusing speciesA molWt diffVol:  O2 31.9988 16.3
    background speciesB molWt diffVol: H2O 18.01534 13.1
    dPore      = dPore [0 1 0 0 0 0 0] 2.64e-05
    porosity   = 1
    tortuosity = 1.5

airDiffModels[2]
  zone size = 1936
diffusivityModels::porousFSG:
    diffusing speciesA molWt diffVol:  O2 31.9988 16.3
    background speciesB molWt diffVol: N2 28.0134 18.5
    dPore      = dPore [0 1 0 0 0 0 0] 1.19e-07
    porosity   = 1
    tortuosity = 1.5
diffusivityModels::porousFSG:
    diffusing speciesA molWt diffVol:  O2 31.9988 16.3
    background speciesB molWt diffVol: H2O 18.01534 13.1
    dPore      = dPore [0 1 0 0 0 0 0] 1.19e-07
    porosity   = 1
    tortuosity = 1.5

diffSpAir[O2]
    internalField min mean max = 7.733349e-06  2.366611e-05  2.977045e-05

airSpecies H2O

airDiffModels[0]
  zone size = 39776
diffusivityModels::binaryFSG:
    diffusing speciesA molWt diffVol: H2O 18.01534 13.1
   background speciesB molWt diffVol: O2 31.9988 16.3
diffusivityModels::binaryFSG:
    diffusing speciesA molWt diffVol: H2O 18.01534 13.1
   background speciesB molWt diffVol: N2 28.0134 18.5

airDiffModels[1]
  zone size = 19360
diffusivityModels::porousFSG:
    diffusing speciesA molWt diffVol:  H2O 18.01534 13.1
    background speciesB molWt diffVol: O2 31.9988 16.3
    dPore      = dPore [0 1 0 0 0 0 0] 2.64e-05
    porosity   = 1
    tortuosity = 1.5
diffusivityModels::porousFSG:
    diffusing speciesA molWt diffVol:  H2O 18.01534 13.1
    background speciesB molWt diffVol: N2 28.0134 18.5
    dPore      = dPore [0 1 0 0 0 0 0] 2.64e-05
    porosity   = 1
    tortuosity = 1.5

airDiffModels[2]
  zone size = 1936
diffusivityModels::porousFSG:
    diffusing speciesA molWt diffVol:  H2O 18.01534 13.1
    background speciesB molWt diffVol: O2 31.9988 16.3
    dPore      = dPore [0 1 0 0 0 0 0] 1.19e-07
    porosity   = 1
    tortuosity = 1.5
diffusivityModels::porousFSG:
    diffusing speciesA molWt diffVol:  H2O 18.01534 13.1
    background speciesB molWt diffVol: N2 28.0134 18.5
    dPore      = dPore [0 1 0 0 0 0 0] 1.19e-07
    porosity   = 1
    tortuosity = 1.5

diffSpAir[H2O]
    internalField min mean max = 9.822887e-06  2.808645e-05  3.527971e-05

Solving air scalars
 Yair[0].name() = YO2air
DILUPBiCG:  Solving for YO2air, Initial residual = 0.0301927, Final residual = 6.671643e-10, No Iterations 31
 Yair[1].name() = YN2air
 Yair[2].name() = YH2Oair
DILUPBiCG:  Solving for YH2Oair, Initial residual = 0.03012053, Final residual = 3.49417e-10, No Iterations 32
inertIndex = 1
min,mean,max(YO2air): 0.1997436 , 0.1999684 , 0.2
min,mean,max(YN2air): 0.6499896 , 0.6499989 , 0.6500046
min,mean,max(YH2Oair): 0.15 , 0.1500327 , 0.1502575

Solving fuel scalars
 Yfuel[0].name() = YCH3OHfuel
DILUPBiCG:  Solving for YCH3OHfuel, Initial residual = 0.02904692, Final residual = 6.240267e-11, No Iterations 31
 Yfuel[1].name() = YH2Ofuel
 Yfuel[2].name() = YCO2fuel
DILUPBiCG:  Solving for YCO2fuel, Initial residual = 0.0290307, Final residual = 6.21957e-11, No Iterations 31
inertIndex = 1
min,mean,max(YCH3OHfuel): 0.8996111 , 0.8999508 , 0.9
min,mean,max(YH2Ofuel): 0.09998913 , 0.09999862 , 0.1
min,mean,max(YCO2fuel): 1e-15 , 5.061527e-05 , 0.0003997657

Solving electrochemistry
min,max(anodeT): 353.003 , 353.0139
min,max(cathodeT): 353.0029 , 353.0138
min,mean,max(XCH3OH): 0.8347285 , 0.8348316 , 0.8349301
min,mean,max(XCO2): 7.173678e-05 , 0.0001702522 , 0.0002733245
min,mean,max(XO2): 0.1652185 , 0.1653343 , 0.1654088
min,mean,max(XH2O): 0.2204861 , 0.2205902 , 0.22076
min,mean,max Nernst = 1.58441  1.587022  1.591208

min,max(pSatAnode): 47029.85 , 47050.67
min,max(pSatCathode): 47029.79 , 47050.6
min,mean,max(wActivityAnode): 0.3538781 , 0.3545765  0.3554658
min,mean,max(wActivityCathode): 0.4691774 , 0.4719895  0.4757153
min,mean,max(a): 0.8230562 , 0.826566  0.8311596
min, mean, max (lambda): 7.259873 , 7.347655  7.463624
min,mean,max(sigma): 6.159525  6.241358  6.349513
min,mean,max (RiMem) = 2.000306e-05  2.035003e-05  2.061734e-05
min,mean,max (ASR)= 2.442185e-05 2.476882e-05 2.503613e-05
min,mean,max(concentrationO2)= 5.665341  5.684686  5.712114
min,mean,max(concentrationMe)= 28.75554  28.78131  28.82928
min,mean,max (cathodeT) = 353.0029  353.0083  353.0138
min,mean,max (i0Ca) = 0.04178365  0.04179946  0.04181585
min,mean,max (anodeT) = 353.003  353.0083  353.0139
min,mean,max (i0An) = 93.77563  93.79294  93.81074
min,mean,max (iLCa) = 41455.13  41504.54  41583.81
min,mean,max (etaActCa) = 0.5512031  0.5524583  0.5544652
min,mean,max (etaActCa) = 0.279927  0.2811681  0.2831993
min,mean,max (etaConCa) = 0.0008087868  0.0008270718  0.0008546649
min,mean,max (etaOhmic) = 0.003279592  0.00339562  0.003545497

Solve current

layer 1

sumVolume: 6.1468e-08
min,max(Nernst): 1.58441 , 1.591208
    Ibar = 137.0815    V = 0.75

stack Voltage =0.75
min,mean,max(current): 134.2743 , 137.0815 , 141.7446

Calculating electrochemical heating
[...]
min,mean,max(concentrationO2)= 5.710457  5.715648  5.720452
min,mean,max(concentrationMe)= 28.82676  28.83505  28.84323
min,mean,max (cathodeT) = 353.0035  353.0081  353.0135
min,mean,max (i0Ca) = 0.04178521  0.04179895  0.041815
min,mean,max (anodeT) = 353.0034  353.0082  353.0136
min,mean,max (i0An) = 93.77705  93.79237  93.80982
min,mean,max (iLCa) = 41565.98  41596.72  41623.88
min,mean,max (etaActCa) = 0.5513803  0.5525707  0.5541824
min,mean,max (etaActCa) = 0.2794149  0.2806412  0.282307
min,mean,max (etaConCa) = 0.0008044262  0.0008203517  0.0008428989
min,mean,max (etaOhmic) = 0.003258858  0.003324438  0.003417139

Solve current

layer 1

sumVolume: 6.1468e-08
min,max(Nernst): 1.584054 , 1.589903
    Ibar = 136.2724    V = 0.75

stack Voltage =0.75
min,mean,max(current): 133.5401 , 136.2724 , 140.0254

Calculating electrochemical heating
anodeEntropyChange  min max: -4.563555 -4.563515
cathodeEntropyChange  min max: 44.73113 44.7314
totalEntropyChange  min max: 40.16762 40.16785
totalEntropySource  min max: -14179.79 -14179.53  -14179.31
min,mean,max(electrochemicalHeating): 57154.75  58507.26  60370.76
fuel species electrochemical fluxes and YEqn BCs
s species[] isFlux[] mflux[] = 0 CH3OH true -0.007300681
s species[] isFlux[] mflux[] = 1 H2O false 0
s species[] isFlux[] mflux[] = 2 CO2 true 0.01002818


fuel mass rates: 
   inlet: 0.000298725   outlet: 0.0002885578   anode: 1.363751e-09
CH3OH mass rates: 
   inlet = 0.0002688525   outlet = 0.0002596973   chem = 3.65034e-09
      utilization by chemRate = 1.357748e-05
      utilization by outRate  = 0.03405277


air species electrochemical fluxes and YEqn BCs
s species[] isFlux[] mflux[] = 0 O2 true -0.01093735
s species[] isFlux[] mflux[] = 1 N2 false 0
s species[] isFlux[] mflux[] = 2 H2O true 0.01231546


air mass rates: 
   inlet: 0.00047985   outlet: 0.0004639322   cathode: 6.89053e-10
O2 mass rates: 
   inlet = 9.597e-05   outlet = 9.278104e-05   chem = 5.468675e-09
      utilization by chemRate = 5.698317e-05
      utilization by outRate  = 0.0332287

min mean max rhoCpF(fuel) = 1581.374 1581.816 1582.106


min mean max rhoCpF(air) = 1046.429 1047.18 1047.727
ELECTROLYTE FLUX MAPPING ACTIVATED
time step continuity errors : sum local = 0.001420808, global = 0.0006098598

Solving energy
--> FOAM Warning : 
    From function Foam::fv::gaussConvectionScheme<Type>::gaussConvectionScheme(const Foam::fvMesh&, const surfaceScalarField&, Foam::Istream&) [with Type = double; Foam::surfaceScalarField = Foam::GeometricField<double, Foam::fvsPatchField, Foam::surfaceMesh>]
    in file finiteVolume/convectionSchemes/gaussConvectionScheme/gaussConvectionScheme.H at line 124
    Reading "/home/fatima/OpenFOAM/fatima-4.0/run/pemfcSinglePhaseModel-4.0/run/system/fvSchemes.divSchemes.div(rhoCpPhi,T)" at line 31
    Unbounded 'Gauss' div scheme used in steady-state solver, use 'bounded Gauss' to ensure boundedness.
    To remove this warning switch off 'warnUnboundedGauss' in "/home/fatima/OpenFOAM/OpenFOAM-4.0/etc/controlDict"
DILUPBiCG:  Solving for T, Initial residual = 0.005222668, Final residual = 6.629366e-19, No Iterations 394
T min mean max     = 353    353.0054    353.0137

 sum TcellEqn.source() =   0.009706002

ExecutionTime = 761.94 s


Time = 57

Tfuel min mean max = 353    353.0047    353.0135
Tair min mean max  = 353    353.0046    353.0135
min,mean,max(rhoFuel): 1.02647   1.026776   1.026988
min,mean,max(rhoAir): 0.914601   0.9152422   0.9157225
min,mean,max(muFuel): 1.153868e-05   1.153918e-05   1.15417e-05
min,mean,max(muAir): 1.948064e-05   1.948282e-05   1.948339e-05
min,mean,max(kFuel): 0.02024581   0.02024629   0.02024746
min,mean,max(kAir): 0.0291905   0.02919155   0.02919209

Solving air flow
--> FOAM Warning : 
    From function Foam::fv::gaussConvectionScheme<Type>::gaussConvectionScheme(const Foam::fvMesh&, const surfaceScalarField&, Foam::Istream&) [with Type = Foam::Vector<double>; Foam::surfaceScalarField = Foam::GeometricField<double, Foam::fvsPatchField, Foam::surfaceMesh>]
    in file finiteVolume/convectionSchemes/gaussConvectionScheme/gaussConvectionScheme.H at line 124
    Reading "/home/fatima/OpenFOAM/fatima-4.0/run/pemfcSinglePhaseModel-4.0/run/system/air/fvSchemes.divSchemes.div(phi,U)" at line 32
    Unbounded 'Gauss' div scheme used in steady-state solver, use 'bounded Gauss' to ensure boundedness.
    To remove this warning switch off 'warnUnboundedGauss' in "/home/fatima/OpenFOAM/OpenFOAM-4.0/etc/controlDict"
DILUPBiCG:  Solving for Ux, Initial residual = 0.01283316, Final residual = 7.758836e-10, No Iterations 6
DILUPBiCG:  Solving for Uy, Initial residual = 0.02541008, Final residual = 1.45095e-10, No Iterations 7
DILUPBiCG:  Solving for Uz, Initial residual = 0.001948073, Final residual = 2.918662e-10, No Iterations 6
DICPCG:  Solving for p, Initial residual = 0.1507443, Final residual = 8.86727e-10, No Iterations 208
time step continuity errors : sum local = 1.222123e-06, global = 1.331153e-09
DICPCG:  Solving for p, Initial residual = 0.09907664, Final residual = 9.697179e-10, No Iterations 203
time step continuity errors : sum local = 1.22096e-06, global = 6.620564e-10

Solving fuel flow
--> FOAM Warning : 
    From function Foam::fv::gaussConvectionScheme<Type>::gaussConvectionScheme(const Foam::fvMesh&, const surfaceScalarField&, Foam::Istream&) [with Type = Foam::Vector<double>; Foam::surfaceScalarField = Foam::GeometricField<double, Foam::fvsPatchField, Foam::surfaceMesh>]
    in file finiteVolume/convectionSchemes/gaussConvectionScheme/gaussConvectionScheme.H at line 124
    Reading "/home/fatima/OpenFOAM/fatima-4.0/run/pemfcSinglePhaseModel-4.0/run/system/fuel/fvSchemes.divSchemes.div(phi,U)" at line 32
    Unbounded 'Gauss' div scheme used in steady-state solver, use 'bounded Gauss' to ensure boundedness.
    To remove this warning switch off 'warnUnboundedGauss' in "/home/fatima/OpenFOAM/OpenFOAM-4.0/etc/controlDict"
DILUPBiCG:  Solving for Ux, Initial residual = 0.01289061, Final residual = 4.142e-11, No Iterations 7
DILUPBiCG:  Solving for Uy, Initial residual = 0.02874419, Final residual = 6.818493e-10, No Iterations 6
DILUPBiCG:  Solving for Uz, Initial residual = 0.001881592, Final residual = 1.333328e-10, No Iterations 6
DICPCG:  Solving for p, Initial residual = 0.159568, Final residual = 8.849368e-10, No Iterations 199
time step continuity errors : sum local = 2.059138e-06, global = -3.667536e-09
DICPCG:  Solving for p, Initial residual = 0.1054565, Final residual = 9.469229e-10, No Iterations 195
time step continuity errors : sum local = 2.064973e-06, global = 2.289595e-10
ReFuel = 1232.81
ReAir  = 1172.813

fuelSpecies CH3OH

fuelDiffModels[0]
  zone size = 39776
diffusivityModels::fixedDiffusivity: 
   diff0 = diff0 [0 2 -1 0 0 0 0] 2.11143e-05

fuelDiffModels[1]
  zone size = 19360
diffusivityModels::fixedDiffusivity: 
   diff0 = diff0 [0 2 -1 0 0 0 0] 7.465e-06

fuelDiffModels[2]
  zone size = 1936
diffusivityModels::fixedDiffusivity: 
   diff0 = diff0 [0 2 -1 0 0 0 0] 1.8885e-06

diffSpFuel[CH3OH]
    internalField min mean max = 1.8885e-06  1.353507e-05  2.11143e-05

fuelSpecies CO2

fuelDiffModels[0]
  zone size = 39776
diffusivityModels::fixedDiffusivity: 
   diff0 = diff0 [0 2 -1 0 0 0 0] 2.11143e-05

fuelDiffModels[1]
  zone size = 19360
diffusivityModels::fixedDiffusivity: 
   diff0 = diff0 [0 2 -1 0 0 0 0] 7.465e-06

fuelDiffModels[2]
  zone size = 1936
diffusivityModels::fixedDiffusivity: 
   diff0 = diff0 [0 2 -1 0 0 0 0] 1.8885e-06

diffSpFuel[CO2]
    internalField min mean max = 1.8885e-06  1.353507e-05  2.11143e-05

airSpecies O2

airDiffModels[0]
  zone size = 39776
diffusivityModels::binaryFSG:
    diffusing speciesA molWt diffVol: O2 31.9988 16.3
   background speciesB molWt diffVol: N2 28.0134 18.5
diffusivityModels::binaryFSG:
    diffusing speciesA molWt diffVol: O2 31.9988 16.3
   background speciesB molWt diffVol: H2O 18.01534 13.1

airDiffModels[1]
  zone size = 19360
diffusivityModels::porousFSG:
    diffusing speciesA molWt diffVol:  O2 31.9988 16.3
    background speciesB molWt diffVol: N2 28.0134 18.5
    dPore      = dPore [0 1 0 0 0 0 0] 2.64e-05
    porosity   = 1
    tortuosity = 1.5
diffusivityModels::porousFSG:
    diffusing speciesA molWt diffVol:  O2 31.9988 16.3
    background speciesB molWt diffVol: H2O 18.01534 13.1
    dPore      = dPore [0 1 0 0 0 0 0] 2.64e-05
    porosity   = 1
    tortuosity = 1.5

airDiffModels[2]
  zone size = 1936
diffusivityModels::porousFSG:
    diffusing speciesA molWt diffVol:  O2 31.9988 16.3
    background speciesB molWt diffVol: N2 28.0134 18.5
    dPore      = dPore [0 1 0 0 0 0 0] 1.19e-07
    porosity   = 1
    tortuosity = 1.5
diffusivityModels::porousFSG:
    diffusing speciesA molWt diffVol:  O2 31.9988 16.3
    background speciesB molWt diffVol: H2O 18.01534 13.1
    dPore      = dPore [0 1 0 0 0 0 0] 1.19e-07
    porosity   = 1
    tortuosity = 1.5

diffSpAir[O2]
    internalField min mean max = 7.729794e-06  2.347573e-05  2.937715e-05

airSpecies H2O

airDiffModels[0]
  zone size = 39776
diffusivityModels::binaryFSG:
    diffusing speciesA molWt diffVol: H2O 18.01534 13.1
   background speciesB molWt diffVol: O2 31.9988 16.3
diffusivityModels::binaryFSG:
    diffusing speciesA molWt diffVol: H2O 18.01534 13.1
   background speciesB molWt diffVol: N2 28.0134 18.5

airDiffModels[1]
  zone size = 19360
diffusivityModels::porousFSG:
    diffusing speciesA molWt diffVol:  H2O 18.01534 13.1
    background speciesB molWt diffVol: O2 31.9988 16.3
    dPore      = dPore [0 1 0 0 0 0 0] 2.64e-05
    porosity   = 1
    tortuosity = 1.5
diffusivityModels::porousFSG:
    diffusing speciesA molWt diffVol:  H2O 18.01534 13.1
    background speciesB molWt diffVol: N2 28.0134 18.5
    dPore      = dPore [0 1 0 0 0 0 0] 2.64e-05
    porosity   = 1
    tortuosity = 1.5

airDiffModels[2]
  zone size = 1936
diffusivityModels::porousFSG:
    diffusing speciesA molWt diffVol:  H2O 18.01534 13.1
    background speciesB molWt diffVol: O2 31.9988 16.3
    dPore      = dPore [0 1 0 0 0 0 0] 1.19e-07
    porosity   = 1
    tortuosity = 1.5
diffusivityModels::porousFSG:
    diffusing speciesA molWt diffVol:  H2O 18.01534 13.1
    background speciesB molWt diffVol: N2 28.0134 18.5
    dPore      = dPore [0 1 0 0 0 0 0] 1.19e-07
    porosity   = 1
    tortuosity = 1.5

diffSpAir[H2O]
    internalField min mean max = 9.818177e-06  2.786044e-05  3.481363e-05

Solving air scalars
 Yair[0].name() = YO2air
DILUPBiCG:  Solving for YO2air, Initial residual = 0.004953827, Final residual = 4.736517e-10, No Iterations 37
 Yair[1].name() = YN2air
 Yair[2].name() = YH2Oair
DILUPBiCG:  Solving for YH2Oair, Initial residual = 0.005018771, Final residual = 1.982184e-10, No Iterations 39
inertIndex = 1
min,mean,max(YO2air): 0.1997565 , 0.1999632 , 0.2
min,mean,max(YN2air): 0.6499865 , 0.6499989 , 0.6500069
min,mean,max(YH2Oair): 0.15 , 0.1500379 , 0.1502455

Solving fuel scalars
 Yfuel[0].name() = YCH3OHfuel
DILUPBiCG:  Solving for YCH3OHfuel, Initial residual = 0.005532208, Final residual = 6.44399e-10, No Iterations 32
 Yfuel[1].name() = YH2Ofuel
 Yfuel[2].name() = YCO2fuel
DILUPBiCG:  Solving for YCO2fuel, Initial residual = 0.00551588, Final residual = 6.412863e-10, No Iterations 32
inertIndex = 1
min,mean,max(YCH3OHfuel): 0.8995834 , 0.8999446 , 0.9
min,mean,max(YH2Ofuel): 0.09998835 , 0.09999845 , 0.1
min,mean,max(YCO2fuel): 1e-15 , 5.691303e-05 , 0.00042828

Solving electrochemistry
min,max(anodeT): 353.0034 , 353.0136
min,max(cathodeT): 353.0035 , 353.0135
min,mean,max(XCH3OH): 0.8347093 , 0.8348159 , 0.8349092
min,mean,max(XCO2): 9.267123e-05 , 0.0001859343 , 0.0002925823
min,mean,max(XO2): 0.1652307 , 0.1653198 , 0.1653888
min,mean,max(XH2O): 0.220515 , 0.2206104 , 0.2207441
min,mean,max Nernst = 1.584063  1.586539  1.589906

min,max(pSatAnode): 47030.69 , 47050.09
min,max(pSatCathode): 47030.79 , 47050.03
min,mean,max(wActivityAnode): 0.3554744 , 0.3556009  0.355723
min,mean,max(wActivityCathode): 0.4756521 , 0.4759019  0.4760721
min,mean,max(a): 0.8312781 , 0.8315028  0.8317449
min, mean, max (lambda): 7.46665 , 7.472397  7.478593
min,mean,max(sigma): 6.351869  6.357317  6.362984
min,mean,max (RiMem) = 1.996032e-05  1.997699e-05  1.999269e-05
min,mean,max (ASR)= 2.437911e-05 2.439578e-05 2.441148e-05
min,mean,max(concentrationO2)= 5.710367  5.715625  5.720441
min,mean,max(concentrationMe)= 28.82665  28.83502  28.84321
min,mean,max (cathodeT) = 353.0035  353.0081  353.0135
min,mean,max (i0Ca) = 0.0417852  0.04179893  0.04181496
min,mean,max (anodeT) = 353.0034  353.0082  353.0136
min,mean,max (i0An) = 93.77704  93.79235  93.80977
min,mean,max (iLCa) = 41565.36  41596.62  41623.87
min,mean,max (etaActCa) = 0.5513844  0.5525719  0.5541836
min,mean,max (etaActCa) = 0.2794198  0.2806427  0.2823081
min,mean,max (etaConCa) = 0.000804497  0.0008203741  0.0008429143
min,mean,max (etaOhmic) = 0.003259151  0.003324547  0.003417221

Solve current

layer 1

sumVolume: 6.1468e-08
min,max(Nernst): 1.584063 , 1.589906
    Ibar = 136.2759    V = 0.75

stack Voltage =0.75
min,mean,max(current): 133.5507 , 136.2759 , 140.028

Calculating electrochemical heating
anodeEntropyChange  min max: -4.563555 -4.563515
cathodeEntropyChange  min max: 44.73113 44.7314
totalEntropyChange  min max: 40.16762 40.16785
totalEntropySource  min max: -14179.79 -14179.53  -14179.31
min,mean,max(electrochemicalHeating): 57159.92  58508.92  60372.49
fuel species electrochemical fluxes and YEqn BCs
s species[] isFlux[] mflux[] = 0 CH3OH true -0.007300863
s species[] isFlux[] mflux[] = 1 H2O false 0
s species[] isFlux[] mflux[] = 2 CO2 true 0.01002843


fuel mass rates: 
   inlet: 0.000298725   outlet: 0.0002882579   anode: 1.363785e-09
CH3OH mass rates: 
   inlet = 0.0002688525   outlet = 0.0002594274   chem = 3.650432e-09
      utilization by chemRate = 1.357782e-05
      utilization by outRate  = 0.03505663


air species electrochemical fluxes and YEqn BCs
s species[] isFlux[] mflux[] = 0 O2 true -0.01093762
s species[] isFlux[] mflux[] = 1 N2 false 0
s species[] isFlux[] mflux[] = 2 H2O true 0.01231576


air mass rates: 
   inlet: 0.00047985   outlet: 0.0004629489   cathode: 6.890702e-10
O2 mass rates: 
   inlet = 9.597e-05   outlet = 9.258438e-05   chem = 5.468811e-09
      utilization by chemRate = 5.698459e-05
      utilization by outRate  = 0.03527788

min mean max rhoCpF(fuel) = 1581.382 1581.814 1582.105


min mean max rhoCpF(air) = 1046.409 1047.176 1047.724
ELECTROLYTE FLUX MAPPING ACTIVATED
time step continuity errors : sum local = 0.001420847, global = 0.000609876

Solving energy
--> FOAM Warning : 
    From function Foam::fv::gaussConvectionScheme<Type>::gaussConvectionScheme(const Foam::fvMesh&, const surfaceScalarField&, Foam::Istream&) [with Type = double; Foam::surfaceScalarField = Foam::GeometricField<double, Foam::fvsPatchField, Foam::surfaceMesh>]
    in file finiteVolume/convectionSchemes/gaussConvectionScheme/gaussConvectionScheme.H at line 124
    Reading "/home/fatima/OpenFOAM/fatima-4.0/run/pemfcSinglePhaseModel-4.0/run/system/fvSchemes.divSchemes.div(rhoCpPhi,T)" at line 31
    Unbounded 'Gauss' div scheme used in steady-state solver, use 'bounded Gauss' to ensure boundedness.
    To remove this warning switch off 'warnUnboundedGauss' in "/home/fatima/OpenFOAM/OpenFOAM-4.0/etc/controlDict"
DILUPBiCG:  Solving for T, Initial residual = 0.005156426, Final residual = 1.388358e+11, No Iterations 50001
T min mean max     = -1.042805e+10    2873149    2.096391e+10

 sum TcellEqn.source() =   0.009700379

ExecutionTime = 1913.53 s


Time = 58

Tfuel min mean max = -1.342747e+09    -792955.4    1.243085e+09
Tair min mean max  = -1.042805e+10    1.057403e+07    2.096391e+10
min,mean,max(rhoFuel): -2100.243   0.29641   2353.419
min,mean,max(rhoAir): -360.6267   0.3496093   1196.869
min,mean,max(muFuel): -2.568718e-07   4.436852e+28   3.461103e+31
min,mean,max(muAir): -2.129905e+38   -5.54352e+34   6.773748e-05
min,mean,max(kFuel): 0.00918891   1.88334e+32   1.468762e+35
min,mean,max(kAir): -7.646054e+41   -1.990042e+38   0.163299

Solving air flow
--> FOAM Warning : 
    From function Foam::fv::gaussConvectionScheme<Type>::gaussConvectionScheme(const Foam::fvMesh&, const surfaceScalarField&, Foam::Istream&) [with Type = Foam::Vector<double>; Foam::surfaceScalarField = Foam::GeometricField<double, Foam::fvsPatchField, Foam::surfaceMesh>]
    in file finiteVolume/convectionSchemes/gaussConvectionScheme/gaussConvectionScheme.H at line 124
    Reading "/home/fatima/OpenFOAM/fatima-4.0/run/pemfcSinglePhaseModel-4.0/run/system/air/fvSchemes.divSchemes.div(phi,U)" at line 32
    Unbounded 'Gauss' div scheme used in steady-state solver, use 'bounded Gauss' to ensure boundedness.
    To remove this warning switch off 'warnUnboundedGauss' in "/home/fatima/OpenFOAM/OpenFOAM-4.0/etc/controlDict"
DILUPBiCG:  Solving for Ux, Initial residual = 0.003160326, Final residual = 1.116918e-10, No Iterations 2
DILUPBiCG:  Solving for Uy, Initial residual = 0.01828006, Final residual = 1.718727e-12, No Iterations 3
DILUPBiCG:  Solving for Uz, Initial residual = 0.00447869, Final residual = 3.677699e-11, No Iterations 2
DICPCG:  Solving for p, Initial residual = 0.9211799, Final residual = 2.186135e+08, No Iterations 701
time step continuity errors : sum local = 3.005723e+12, global = -724.596
DICPCG:  Solving for p, Initial residual = 1.382281e-14, Final residual = 5.370989e-14, No Iterations 1
time step continuity errors : sum local = 1.112807e+13, global = -724.5963

Solving fuel flow
--> FOAM Warning : 
    From function Foam::fv::gaussConvectionScheme<Type>::gaussConvectionScheme(const Foam::fvMesh&, const surfaceScalarField&, Foam::Istream&) [with Type = Foam::Vector<double>; Foam::surfaceScalarField = Foam::GeometricField<double, Foam::fvsPatchField, Foam::surfaceMesh>]
    in file finiteVolume/convectionSchemes/gaussConvectionScheme/gaussConvectionScheme.H at line 124
    Reading "/home/fatima/OpenFOAM/fatima-4.0/run/pemfcSinglePhaseModel-4.0/run/system/fuel/fvSchemes.divSchemes.div(phi,U)" at line 32
    Unbounded 'Gauss' div scheme used in steady-state solver, use 'bounded Gauss' to ensure boundedness.
    To remove this warning switch off 'warnUnboundedGauss' in "/home/fatima/OpenFOAM/OpenFOAM-4.0/etc/controlDict"
DILUPBiCG:  Solving for Ux, Initial residual = 0.0139899, Final residual = 2.593973e-11, No Iterations 3
DILUPBiCG:  Solving for Uy, Initial residual = 0.01018394, Final residual = 7.538674e-12, No Iterations 3
DILUPBiCG:  Solving for Uz, Initial residual = 0.003850224, Final residual = 1.27212e-11, No Iterations 3
DICPCG:  Solving for p, Initial residual = 0.8379989, Final residual = 3.362683e+11, No Iterations 701
time step continuity errors : sum local = 5.010025e+15, global = -451.3184
DICPCG:  Solving for p, Initial residual = 1.008102e-07, Final residual = 1.350904e-05, No Iterations 701
time step continuity errors : sum local = 5.303315e+17, global = -552.5274
ReFuel = 1575.588
ReAir  = 1246.225

fuelSpecies CH3OH

fuelDiffModels[0]
  zone size = 39776
diffusivityModels::fixedDiffusivity: 
   diff0 = diff0 [0 2 -1 0 0 0 0] 2.11143e-05

fuelDiffModels[1]
  zone size = 19360
diffusivityModels::fixedDiffusivity: 
   diff0 = diff0 [0 2 -1 0 0 0 0] 7.465e-06

fuelDiffModels[2]
  zone size = 1936
diffusivityModels::fixedDiffusivity: 
   diff0 = diff0 [0 2 -1 0 0 0 0] 1.8885e-06

diffSpFuel[CH3OH]
    internalField min mean max = 1.8885e-06  1.353507e-05  2.11143e-05

fuelSpecies CO2

fuelDiffModels[0]
  zone size = 39776
diffusivityModels::fixedDiffusivity: 
   diff0 = diff0 [0 2 -1 0 0 0 0] 2.11143e-05

fuelDiffModels[1]
  zone size = 19360
diffusivityModels::fixedDiffusivity: 
   diff0 = diff0 [0 2 -1 0 0 0 0] 7.465e-06

fuelDiffModels[2]
  zone size = 1936
diffusivityModels::fixedDiffusivity: 
   diff0 = diff0 [0 2 -1 0 0 0 0] 1.8885e-06

diffSpFuel[CO2]
    internalField min mean max = 1.8885e-06  1.353507e-05  2.11143e-05

airSpecies O2

airDiffModels[0]
  zone size = 39776
