/*---------------------------------------------------------------------------*\
| =========                 |                                                 |
| \\      /  F ield         | OpenFOAM: The Open Source CFD Toolbox           |
|  \\    /   O peration     | Version:  4.0                                   |
|   \\  /    A nd           | Web:      www.OpenFOAM.org                      |
|    \\/     M anipulation  |                                                 |
\*---------------------------------------------------------------------------*/
Build  : 4.0
Exec   : pemfcSinglephaseNonIsothermalSolver
Date   : Apr 12 2021
Time   : 12:29:35
Host   : "fatima-HP-625"
PID    : 4683
Case   : /home/fatima/OpenFOAM/fatima-4.0/run/pemfcSinglePhaseModel-4.0/run
nProcs : 1
sigFpe : Enabling floating point exception trapping (FOAM_SIGFPE).
fileModificationChecking : Monitoring run-time modified files using timeStampMaster
allowSystemOperations : Allowing user-supplied system call operations

// * * * * * * * * * * * * * * * * * * * * * * * * * * * * * * * * * * * * * //
Create time

Create mesh for time = 0

Reading cell properties

potentiostatic run
    Ibar0 = Ibar0 [0 -2 0 0 0 1 0] 616
    V     = V [1 2 -3 0 0 -1 0] 0.6
CL electronic conductivity(kappaCl) = kappaCl [-1 -2 3 0 0 2 0] 1000
GDL electronic conductivity(kappaGdl) = kappaGdl [-1 -2 3 0 0 2 0] 5000
GDL - BP Contact resistance (rContact)= rContact [1 4 -3 0 0 -2 0] 2e-06
BP electronic conductivity(kappaBp) = kappaBp [-1 -2 3 0 0 2 0] 83000
CL thickness (tCl) = tCl [0 1 0 0 0 0 0] 3.7e-06
GDL thickness (tGdl) = tGdl [0 1 0 0 0 0 0] 0.00041
BP thickness (tBp) = tBp [0 1 0 0 0 0 0] 0.003
concentration overpotential constant = etaConCaConstant [0 0 0 0 0 0 0] 0.25

    Tinit = Tinit [0 0 0 1 0 0 0] 353

    anodeName              = fuel_to_electrolyte
    fuelInletName          = fuelInlet
    fuelOutletName         = fuelOutlet
    fuelAbpName            = fuel_to_abp
    cathodeName            = air_to_electrolyte
    airInletName           = airInlet
    airOutletName          = airOutlet
    airCbpName             = air_to_cbp
    electrolyteAnodeName   = electrolyte_to_fuel
    electrolyteCathodeName = electrolyte_to_air
    abpFuelName            = abp_to_fuel
    cbpAirName             = cbp_to_air

Reading cell field T

Reading cell field k

Reading anode bipolarPlate properties

  anode bipolarPlate
    rhoAnodeBipolarPlate = rho [1 -3 0 0 0 0 0] 1880
    CpAnodeBipolarPlate  = Cp [0 2 -2 -1 0 0 0] 875
    kAnodeBipolarPlate   = k [1 1 -3 -1 0 0 0] 10.7

Reading cathode bipolarPlate properties

  cathode bipolarPlate
    rhoCathodeBipolarPlate = rho [1 -3 0 0 0 0 0] 1880
    CpCathodeBipolarPlate  = Cp [0 2 -2 -1 0 0 0] 875
    kCathodeBipolarPlate   = k [1 1 -3 -1 0 0 0] 10.7

Creating anode bipolar plate field TanodeBP
Creating cathode bipolar plate field TcathodeBP
Reading fuel properties

    muF       = mu [1 -1 -1 0 0 0 0] 1.155227e-05
    rhoF      = rho [1 -3 0 0 0 0 0] 1.138
    CpF       = Cp [0 2 -2 -1 0 0 0] 3743
    kF        = k [1 1 -3 -1 0 0 0] 0.01805811
    dHydFuel  = dHyd [0 1 0 0 0 0 0] 0.001

Creating fuel field p
Creating fuel field rho
Creating fuel field mu
Creating fuel field U
Creating fuel face flux field phi
Creating fuel field Tfuel
Creating fuel field cp
Creating fuel field k
Creating fuel porous zones
Creating porosity model list from porosityProperties

Porosity region agdl:
    selecting model: myDarcyForchheimer
    creating porous zone: agdl
Porosity region acl:
    selecting model: myDarcyForchheimer
    creating porous zone: acl
    number of porous zones = 2
    zone 1(6) agdl : size = 19360; porosity = 0.5
    zone 1(5) acl : size = 1936; porosity = 0.4


Reading fuel pemfcSpeciesProperties
               name    MW[kg/kmol]     ne      rSign   hForm       sForm   
fuelSpecies[0] CH3OH   32.04           6       -1      0           239.9   
fuelSpecies[1] H2O     18.016          0       0       0           188.835 
fuelSpecies[2] CO2     44.01           6       1       -393520     213.79  

fuelInertSpecie = H2O

CpCoeffs(CH3OH) 45.89 -138.48 709.4 -1125.82 917.63 -384.69 65.53
CpCoeffs(H2O) 37.373 -41.205 146.01 -217.08 181.54 -79.409 14.015
CpCoeffs(CO2) 4.3669 204.6 -471.33 657.88 -519.9 214.58 -35.992

muCoeffs(CH3OH) 11.25 181.4 612.85 -1097.2 910.24 -378.75 63.45
muCoeffs(H2O) -6.7541 244.93 419.5 -522.38 348.12 -126.96 19.591
muCoeffs(CO2) -20.434 680.07 -432.49 244.22 -85.929 14.45 -0.4564

kCoeffs(CH3OH) 1.6778 -12.5727 55.8068 -62.8414 41.0951 -14.9573 2.32
kCoeffs(H2O) 2.0103 -7.9139 35.922 -41.39 35.993 -18.974 4.1531
kCoeffs(CO2) 2.8888 -27.018 129.65 -233.29 216.83 -101.12 18.698

ToddYoung checks
CH3OH
    Cp(353) = 48.14942
    mu(353) = 115.5687
    k(353)  = 1.990069
H2O
    Cp(353) = 33.88381
    mu(353) = 113.7492
    k(353)  = 2.33519
CO2
    Cp(353) = 39.83071
    mu(353) = 175.2251
    k(353)  = 2.094009

Reading electrolyte properties

    rhoElectrolyte  = rho [1 -3 0 0 0 0 0] 1980
    CpElectrolyte   = Cp [0 2 -2 -1 0 0 0] 1050
    kElectrolyte    = k [1 1 -3 -1 0 0 0] 0.67
    sigmaElectrolyte    = sigma [-1 -2 3 0 0 2 0] 17

Reading activation parameters

    i0AnodeElectrolyteReference    = i0aReference [0 -2 0 0 0 1 0] 94.25
    EAnodeElectrolyte    = EAnode [1 2 -2 0 -1 0 0] 35570
    alphaAnodeElectrolyte    = alphaAnode [0 0 0 0 0 0 0] 0.5
    i0CathodeElectrolyteReference    = i0Reference [0 -2 0 0 0 1 0] 0.04222
    ECathodeElectrolyte    = ECathode [1 2 -2 0 -1 0 0] 73220
    alphaCathodeElectrolyte    = alphaCathode [0 0 0 0 0 0 0] 0.5

creating current density field

creating voltage field

creating Nernst potential field

Creating electrolyte field Telectrolyte
Reading air properties

    muA   = mu [1 -1 -1 0 0 0 0] 1.5158e-05
    rhoA  = rho [1 -3 0 0 0 0 0] 0.914
    CpA   = Cp [0 2 -2 -1 0 0 0] 1108.85
    kA    = k [1 1 -3 -1 0 0 0] 0.02867
    dHydAir  = dHyd [0 1 0 0 0 0 0] 0.001

Creating air field p
Creating air field rho
Creating air field mu
Creating air field U
Creating air face flux field phi
Creating air field Tair
Creating air field cp
Creating air field k
Creating air porous zones
Creating porosity model list from porosityProperties

Porosity region cgdl:
    selecting model: myDarcyForchheimer
    creating porous zone: cgdl
Porosity region ccl:
    selecting model: myDarcyForchheimer
    creating porous zone: ccl
    number of porous zones = 2
    zone 1(5) cgdl : size = 19360; porosity = 0.5
    zone 1(6) ccl : size = 1936; porosity = 0.4


Reading air pemfcSpeciesProperties
              name    MW[kg/kmol]     ne      rSign   hForm       sForm   
airSpecies[0] O2      32              4       -1      0           205.152 
airSpecies[1] N2      28.02           0       0       0           191.609 
airSpecies[2] H2O     18.016          2       1       -241834.9   188.835 

airInertSpecie = N2

CpCoeffs(O2) 34.85 -57.975 203.68 -300.37 231.72 -91.821 14.776
CpCoeffs(N2) 29.027 4.8987 -38.04 105.17 -113.56 55.554 -10.35
CpCoeffs(H2O) 37.373 -41.205 146.01 -217.08 181.54 -79.409 14.015

muCoeffs(O2) -1.6918 889.75 -892.79 905.98 -598.36 221.64 -34.754
muCoeffs(N2) 1.2719 771.45 -809.2 832.47 -553.93 206.15 -32.43
muCoeffs(H2O) -6.7541 244.93 419.5 -522.38 348.12 -126.96 19.591

kCoeffs(O2) -0.1857 11.118 -7.3734 6.713 -4.1797 1.491 -0.2278
kCoeffs(N2) -0.3216 14.81 -25.473 38.837 -32.133 13.493 -2.2741
kCoeffs(H2O) 2.0103 -7.9139 35.922 -41.39 35.993 -18.974 4.1531

ToddYoung checks
O2
    Cp(353) = 29.67613
    mu(353) = 232.8482
    k(353)  = 3.058278
N2
    Cp(353) = 29.16341
    mu(353) = 201.8441
    k(353)  = 3.011103
H2O
    Cp(353) = 33.88381
    mu(353) = 113.7492
    k(353)  = 2.33519


Reading rxnProperties
rxnSpCoef contents: 
5
(
CO2
O2
CH3OH
e
H2O
)

rxnSpecies stoichiometric coefficients: 
stoichCoeff O2 = 1.5
stoichCoeff H2O = 2
stoichCoeff CH3OH = 1
stoichCoeff CO2 = 1
stoichCoeff e = 6

Setting special patch IDs

    electrolyte thickness (calculated) tMem = tMem [0 1 0 0 0 0 0] 0.000127


Creating fuel diffusivity models
zone 2 fuel
Selecting diffusivity model fixedDiffusivity
anodeZone 0, fuelZone 6: agdl
size = 19360
Selecting diffusivity model fixedDiffusivity
anodeZone 1, fuelZone 5: acl
size = 1936
Selecting diffusivity model fixedDiffusivity

Creating air diffusivity models
zone 4 air
Selecting diffusivity model binaryFSG
cathodeZone 0, airZone 5: cgdl
size = 19360
Selecting diffusivity model porousFSG
cathodeZone 1, airZone 6: ccl
size = 1936
Selecting diffusivity model porousFSG

Starting time loop

Time = 1

Tfuel min mean max = 353    353    353
Tair min mean max  = 353    353    353
min,mean,max(rhoFuel): 1.02623   1.02623   1.02623
min,mean,max(rhoAir): 0.9139413   0.9139413   0.9139413
min,mean,max(muFuel): 1.153868e-05   1.153868e-05   1.153868e-05
min,mean,max(muAir): 1.948307e-05   1.948307e-05   1.948307e-05
min,mean,max(kFuel): 0.02024581   0.02024581   0.02024581
min,mean,max(kAir): 0.02919151   0.02919151   0.02919151

Solving air flow
--> FOAM Warning : 
    From function Foam::fv::gaussConvectionScheme<Type>::gaussConvectionScheme(const Foam::fvMesh&, const surfaceScalarField&, Foam::Istream&) [with Type = Foam::Vector<double>; Foam::surfaceScalarField = Foam::GeometricField<double, Foam::fvsPatchField, Foam::surfaceMesh>]
    in file finiteVolume/convectionSchemes/gaussConvectionScheme/gaussConvectionScheme.H at line 124
    Reading "/home/fatima/OpenFOAM/fatima-4.0/run/pemfcSinglePhaseModel-4.0/run/system/air/fvSchemes.divSchemes.div(phi,U)" at line 32
    Unbounded 'Gauss' div scheme used in steady-state solver, use 'bounded Gauss' to ensure boundedness.
    To remove this warning switch off 'warnUnboundedGauss' in "/home/fatima/OpenFOAM/OpenFOAM-4.0/etc/controlDict"
DILUPBiCG:  Solving for Ux, Initial residual = 0.9999968, Final residual = 1.5478e-10, No Iterations 4
DILUPBiCG:  Solving for Uy, Initial residual = 0.999979, Final residual = 4.87157e-12, No Iterations 5
DILUPBiCG:  Solving for Uz, Initial residual = 1, Final residual = 2.371463e-10, No Iterations 4
DICPCG:  Solving for p, Initial residual = 1, Final residual = 8.501093e-10, No Iterations 238
time step continuity errors : sum local = 2.052549e-06, global = -3.344127e-08
DICPCG:  Solving for p, Initial residual = 0.04055749, Final residual = 9.381933e-10, No Iterations 215
time step continuity errors : sum local = 1.980198e-06, global = -6.640017e-08

Solving fuel flow
--> FOAM Warning : 
    From function Foam::fv::gaussConvectionScheme<Type>::gaussConvectionScheme(const Foam::fvMesh&, const surfaceScalarField&, Foam::Istream&) [with Type = Foam::Vector<double>; Foam::surfaceScalarField = Foam::GeometricField<double, Foam::fvsPatchField, Foam::surfaceMesh>]
    in file finiteVolume/convectionSchemes/gaussConvectionScheme/gaussConvectionScheme.H at line 124
    Reading "/home/fatima/OpenFOAM/fatima-4.0/run/pemfcSinglePhaseModel-4.0/run/system/fuel/fvSchemes.divSchemes.div(phi,U)" at line 32
    Unbounded 'Gauss' div scheme used in steady-state solver, use 'bounded Gauss' to ensure boundedness.
    To remove this warning switch off 'warnUnboundedGauss' in "/home/fatima/OpenFOAM/OpenFOAM-4.0/etc/controlDict"
DILUPBiCG:  Solving for Ux, Initial residual = 0.9999968, Final residual = 1.317541e-11, No Iterations 3
DILUPBiCG:  Solving for Uy, Initial residual = 0.9997891, Final residual = 7.226337e-10, No Iterations 3
DILUPBiCG:  Solving for Uz, Initial residual = 1, Final residual = 2.37403e-10, No Iterations 4
DICPCG:  Solving for p, Initial residual = 1, Final residual = 9.503484e-10, No Iterations 230
time step continuity errors : sum local = 3.771892e-06, global = -1.354205e-08
DICPCG:  Solving for p, Initial residual = 0.03986439, Final residual = 8.321372e-10, No Iterations 208
time step continuity errors : sum local = 3.625842e-06, global = -6.224103e-09
ReFuel = 98.62481
ReAir  = 46.91253

fuelSpecies CH3OH

fuelDiffModels[0]
  zone size = 39776
diffusivityModels::fixedDiffusivity: 
   diff0 = diff0 [0 2 -1 0 0 0 0] 2.11143e-05

fuelDiffModels[1]
  zone size = 19360
diffusivityModels::fixedDiffusivity: 
   diff0 = diff0 [0 2 -1 0 0 0 0] 7.465e-06

fuelDiffModels[2]
  zone size = 1936
diffusivityModels::fixedDiffusivity: 
   diff0 = diff0 [0 2 -1 0 0 0 0] 1.8885e-06

diffSpFuel[CH3OH]
    internalField min mean max = 1.8885e-06  1.353507e-05  2.11143e-05

fuelSpecies CO2

fuelDiffModels[0]
  zone size = 39776
diffusivityModels::fixedDiffusivity: 
   diff0 = diff0 [0 2 -1 0 0 0 0] 2.11143e-05

fuelDiffModels[1]
  zone size = 19360
diffusivityModels::fixedDiffusivity: 
   diff0 = diff0 [0 2 -1 0 0 0 0] 7.465e-06

fuelDiffModels[2]
  zone size = 1936
diffusivityModels::fixedDiffusivity: 
   diff0 = diff0 [0 2 -1 0 0 0 0] 1.8885e-06

diffSpFuel[CO2]
    internalField min mean max = 1.8885e-06  1.353507e-05  2.11143e-05

airSpecies O2

airDiffModels[0]
  zone size = 39776
diffusivityModels::binaryFSG:
    diffusing speciesA molWt diffVol: O2 31.9988 16.3
   background speciesB molWt diffVol: N2 28.0134 18.5
diffusivityModels::binaryFSG:
    diffusing speciesA molWt diffVol: O2 31.9988 16.3
   background speciesB molWt diffVol: H2O 18.01534 13.1

airDiffModels[1]
  zone size = 19360
diffusivityModels::porousFSG:
    diffusing speciesA molWt diffVol:  O2 31.9988 16.3
    background speciesB molWt diffVol: N2 28.0134 18.5
    dPore      = dPore [0 1 0 0 0 0 0] 2.64e-05
    porosity   = 1
    tortuosity = 1.5
diffusivityModels::porousFSG:
    diffusing speciesA molWt diffVol:  O2 31.9988 16.3
    background speciesB molWt diffVol: H2O 18.01534 13.1
    dPore      = dPore [0 1 0 0 0 0 0] 2.64e-05
    porosity   = 1
    tortuosity = 1.5

airDiffModels[2]
  zone size = 1936
diffusivityModels::porousFSG:
    diffusing speciesA molWt diffVol:  O2 31.9988 16.3
    background speciesB molWt diffVol: N2 28.0134 18.5
    dPore      = dPore [0 1 0 0 0 0 0] 1.19e-07
    porosity   = 1
    tortuosity = 1.5
diffusivityModels::porousFSG:
    diffusing speciesA molWt diffVol:  O2 31.9988 16.3
    background speciesB molWt diffVol: H2O 18.01534 13.1
    dPore      = dPore [0 1 0 0 0 0 0] 1.19e-07
    porosity   = 1
    tortuosity = 1.5

diffSpAir[O2]
    internalField min mean max = 7.732256e-06  2.349581e-05  2.939748e-05

airSpecies H2O

airDiffModels[0]
  zone size = 39776
diffusivityModels::binaryFSG:
    diffusing speciesA molWt diffVol: H2O 18.01534 13.1
   background speciesB molWt diffVol: O2 31.9988 16.3
diffusivityModels::binaryFSG:
    diffusing speciesA molWt diffVol: H2O 18.01534 13.1
   background speciesB molWt diffVol: N2 28.0134 18.5

airDiffModels[1]
  zone size = 19360
diffusivityModels::porousFSG:
    diffusing speciesA molWt diffVol:  H2O 18.01534 13.1
    background speciesB molWt diffVol: O2 31.9988 16.3
    dPore      = dPore [0 1 0 0 0 0 0] 2.64e-05
    porosity   = 1
    tortuosity = 1.5
diffusivityModels::porousFSG:
    diffusing speciesA molWt diffVol:  H2O 18.01534 13.1
    background speciesB molWt diffVol: N2 28.0134 18.5
    dPore      = dPore [0 1 0 0 0 0 0] 2.64e-05
    porosity   = 1
    tortuosity = 1.5

airDiffModels[2]
  zone size = 1936
diffusivityModels::porousFSG:
    diffusing speciesA molWt diffVol:  H2O 18.01534 13.1
    background speciesB molWt diffVol: O2 31.9988 16.3
    dPore      = dPore [0 1 0 0 0 0 0] 1.19e-07
    porosity   = 1
    tortuosity = 1.5
diffusivityModels::porousFSG:
    diffusing speciesA molWt diffVol:  H2O 18.01534 13.1
    background speciesB molWt diffVol: N2 28.0134 18.5
    dPore      = dPore [0 1 0 0 0 0 0] 1.19e-07
    porosity   = 1
    tortuosity = 1.5

diffSpAir[H2O]
    internalField min mean max = 9.821675e-06  2.788451e-05  3.483773e-05

Solving air scalars
 Yair[0].name() = YO2air
DILUPBiCG:  Solving for YO2air, Initial residual = 0.999989, Final residual = 9.925887e-10, No Iterations 44
 Yair[1].name() = YN2air
 Yair[2].name() = YH2Oair
DILUPBiCG:  Solving for YH2Oair, Initial residual = 0.9999903, Final residual = 5.673768e-10, No Iterations 47
inertIndex = 1
min,mean,max(YO2air): 0.2 , 0.2 , 0.2
min,mean,max(YN2air): 0.65 , 0.65 , 0.65
min,mean,max(YH2Oair): 0.15 , 0.15 , 0.15

Solving fuel scalars
 Yfuel[0].name() = YCH3OHfuel
DILUPBiCG:  Solving for YCH3OHfuel, Initial residual = 0.999992, Final residual = 5.577584e-10, No Iterations 35
 Yfuel[1].name() = YH2Ofuel
 Yfuel[2].name() = YCO2fuel
DILUPBiCG:  Solving for YCO2fuel:  solution singularity
inertIndex = 1
min,mean,max(YCH3OHfuel): 0.9 , 0.9 , 0.9
min,mean,max(YH2Ofuel): 0.09999999 , 0.1 , 0.1
min,mean,max(YCO2fuel): 1e-15 , 1e-15 , 1e-15

Solving electrochemistry
min,max(anodeT): 353 , 353
min,max(cathodeT): 353 , 353
min,mean,max(XCH3OH): 0.8350018 , 0.8350018 , 0.8350019
min,mean,max(XCO2): 1e-15 , 1e-15 , 1e-15
min,mean,max(XO2): 0.1654593 , 0.1654593 , 0.1654593
min,mean,max(XH2O): 0.2204164 , 0.2204164 , 0.2204164
O2  1.5
   mean H(T) = 2426.383
   mean S(T) = 315.1971
H2O  2
   mean H(T) = -479971.3
   mean S(T) = 389.0555
CH3OH  1
   mean H(T) = 2531.134
   mean S(T) = 247.6835
CO2  1
   mean H(T) = -391402.8
   mean S(T) = 220.3025
 mean deltaHrxn = -876331.5
 mean cathodeT  = 353
 mean deltaSrxn = 46.47744
 mean TdeltaS   = 16406.54
 mean deltaG    = -892738.1

min,mean,max Nernst = 1.717942  1.717942  1.717942

min,max(pSatAnode): 47024.19 , 47024.19
min,max(pSatCathode): 47024.19 , 47024.19
min,mean,max(wActivityAnode): 0.3555361 , 0.3556588  0.3557811
min,mean,max(wActivityCathode): 0.4749562 , 0.4752057  0.4754558
min,mean,max(a): 0.8304923 , 0.8308644  0.8312369
min, mean, max (lambda): 7.446599 , 7.456089  7.465597
min,mean,max(sigma): 6.33281  6.341632  6.350471
min,mean,max (RiMem) = 1.000006e-05  2.000569e-05  2.005422e-05
min,mean,max (ASR)= 1.441885e-05 2.442448e-05 2.447301e-05
min,mean,max(concentrationO2)= 5.712133  5.712133  5.712133
min,mean,max(concentrationMe)= 28.82668  28.82668  28.82668
min,mean,max (cathodeT) = 353  353  353
min,mean,max (i0Ca) = 0.04177499  0.04177499  0.04177499
min,mean,max (anodeT) = 353  353  353
min,mean,max (i0An) = 93.76608  93.76608  93.76608
min,mean,max (iLCa) = 41575.93  41584.57  41593.2
min,mean,max (etaActCa) = 0.6810992  0.681122  0.6860753
min,mean,max (etaActCa) = 0.4092441  0.4092669  0.4142202
min,mean,max (etaConCa) = 0.006871751  0.00687584  0.007469319
min,mean,max (etaOhmic) = 0.01764603  0.02755269  0.02759828

Solve current

layer 1

sumVolume: 6.1468e-08
min,max(Nernst): 1.717942 , 1.717942
    Ibar = 1128.13    V = 0.6

stack Voltage =0.6
min,mean,max(current): 1127.703 , 1128.13 , 1223.817

Calculating electrochemical heating
anodeEntropyChange  min max: -4.563502 -4.563502
cathodeEntropyChange  min max: 44.73104 44.73104
totalEntropyChange  min max: 40.16754 40.16754
totalEntropySource  min max: -14179.14 -14179.14  -14179.14
min,mean,max(electrochemicalHeating): 671863.1  672095.3  723511.8
fuel species electrochemical fluxes and YEqn BCs
s species[] isFlux[] mflux[] = 0 CH3OH true -0.06043863
s species[] isFlux[] mflux[] = 1 H2O false 0
s species[] isFlux[] mflux[] = 2 CO2 true 0.08301823


fuel mass rates: 
   inlet: 2.3898e-05   outlet: 1.026364e-05   anode: 1.12898e-08
CH3OH mass rates: 
   inlet = 2.15082e-05   outlet = 9.23728e-06   chem = 3.021931e-08
      utilization by chemRate = 0.001405014
      utilization by outRate  = 0.5705229


air species electrochemical fluxes and YEqn BCs
s species[] isFlux[] mflux[] = 0 O2 true -0.09054476
s species[] isFlux[] mflux[] = 1 N2 false 0
s species[] isFlux[] mflux[] = 2 H2O true 0.1019534


air mass rates: 
   inlet: 1.9194e-05   outlet: 8.243384e-06   cathode: 5.70432e-09
O2 mass rates: 
   inlet = 3.8388e-06   outlet = 1.648677e-06   chem = 4.527238e-08
      utilization by chemRate = 0.01179337
      utilization by outRate  = 0.5705229

min mean max rhoCpF(fuel) = 1580.997 1580.997 1580.997


min mean max rhoCpF(air) = 1045.654 1045.654 1045.654
ELECTROLYTE FLUX MAPPING ACTIVATED
time step continuity errors : sum local = 1.102962e-06, global = -1.428848e-08

Solving energy
--> FOAM Warning : 
    From function Foam::fv::gaussConvectionScheme<Type>::gaussConvectionScheme(const Foam::fvMesh&, const surfaceScalarField&, Foam::Istream&) [with Type = double; Foam::surfaceScalarField = Foam::GeometricField<double, Foam::fvsPatchField, Foam::surfaceMesh>]
    in file finiteVolume/convectionSchemes/gaussConvectionScheme/gaussConvectionScheme.H at line 124
    Reading "/home/fatima/OpenFOAM/fatima-4.0/run/pemfcSinglePhaseModel-4.0/run/system/fvSchemes.divSchemes.div(rhoCpPhi,T)" at line 31
    Unbounded 'Gauss' div scheme used in steady-state solver, use 'bounded Gauss' to ensure boundedness.
    To remove this warning switch off 'warnUnboundedGauss' in "/home/fatima/OpenFOAM/OpenFOAM-4.0/etc/controlDict"
DILUPBiCG:  Solving for T, Initial residual = 1, Final residual = 6.505794e-19, No Iterations 675
T min mean max     = 353.0033    353.6561    353.876

 sum TcellEqn.source() =   0.04131326

ExecutionTime = 23.17 s


Time = 2

Tfuel min mean max = 353.0033    353.5947    353.8739
Tair min mean max  = 353.0223    353.6617    353.8743
min,mean,max(rhoFuel): 1.023718   1.02488   1.026953
min,mean,max(rhoAir): 0.9117133   0.9127407   0.9148803
min,mean,max(muFuel): 1.153879e-05   1.155907e-05   1.156864e-05
min,mean,max(muAir): 1.948405e-05   1.951219e-05   1.952154e-05
min,mean,max(kFuel): 0.02024611   0.02030075   0.02032657
min,mean,max(kAir): 0.02919306   0.0292374   0.02925214

Solving air flow
--> FOAM Warning : 
    From function Foam::fv::gaussConvectionScheme<Type>::gaussConvectionScheme(const Foam::fvMesh&, const surfaceScalarField&, Foam::Istream&) [with Type = Foam::Vector<double>; Foam::surfaceScalarField = Foam::GeometricField<double, Foam::fvsPatchField, Foam::surfaceMesh>]
    in file finiteVolume/convectionSchemes/gaussConvectionScheme/gaussConvectionScheme.H at line 124
    Reading "/home/fatima/OpenFOAM/fatima-4.0/run/pemfcSinglePhaseModel-4.0/run/system/air/fvSchemes.divSchemes.div(phi,U)" at line 32
    Unbounded 'Gauss' div scheme used in steady-state solver, use 'bounded Gauss' to ensure boundedness.
    To remove this warning switch off 'warnUnboundedGauss' in "/home/fatima/OpenFOAM/OpenFOAM-4.0/etc/controlDict"
DILUPBiCG:  Solving for Ux, Initial residual = 0.4140066, Final residual = 4.2827e-11, No Iterations 6
DILUPBiCG:  Solving for Uy, Initial residual = 0.455076, Final residual = 2.89904e-10, No Iterations 5
DILUPBiCG:  Solving for Uz, Initial residual = 0.228129, Final residual = 2.847422e-10, No Iterations 5
DICPCG:  Solving for p, Initial residual = 0.03393892, Final residual = 8.611118e-10, No Iterations 211
time step continuity errors : sum local = 1.886135e-06, global = -1.647697e-10
DICPCG:  Solving for p, Initial residual = 0.02243617, Final residual = 9.766639e-10, No Iterations 204
time step continuity errors : sum local = 1.851947e-06, global = 2.523945e-09

Solving fuel flow
--> FOAM Warning : 
    From function Foam::fv::gaussConvectionScheme<Type>::gaussConvectionScheme(const Foam::fvMesh&, const surfaceScalarField&, Foam::Istream&) [with Type = Foam::Vector<double>; Foam::surfaceScalarField = Foam::GeometricField<double, Foam::fvsPatchField, Foam::surfaceMesh>]
    in file finiteVolume/convectionSchemes/gaussConvectionScheme/gaussConvectionScheme.H at line 124
    Reading "/home/fatima/OpenFOAM/fatima-4.0/run/pemfcSinglePhaseModel-4.0/run/system/fuel/fvSchemes.divSchemes.div(phi,U)" at line 32
    Unbounded 'Gauss' div scheme used in steady-state solver, use 'bounded Gauss' to ensure boundedness.
    To remove this warning switch off 'warnUnboundedGauss' in "/home/fatima/OpenFOAM/OpenFOAM-4.0/etc/controlDict"
DILUPBiCG:  Solving for Ux, Initial residual = 0.4015304, Final residual = 7.345639e-10, No Iterations 6
DILUPBiCG:  Solving for Uy, Initial residual = 0.4520938, Final residual = 8.855565e-11, No Iterations 6
DILUPBiCG:  Solving for Uz, Initial residual = 0.2223222, Final residual = 1.067254e-10, No Iterations 6
DICPCG:  Solving for p, Initial residual = 0.03860212, Final residual = 9.620808e-10, No Iterations 187
time step continuity errors : sum local = 3.260707e-06, global = -2.613094e-09
DICPCG:  Solving for p, Initial residual = 0.02282915, Final residual = 9.837861e-10, No Iterations 176
time step continuity errors : sum local = 3.177282e-06, global = 2.564088e-09
ReFuel = 98.59762
ReAir  = 46.89587

fuelSpecies CH3OH

fuelDiffModels[0]
  zone size = 39776
diffusivityModels::fixedDiffusivity: 
   diff0 = diff0 [0 2 -1 0 0 0 0] 2.11143e-05

fuelDiffModels[1]
  zone size = 19360
diffusivityModels::fixedDiffusivity: 
   diff0 = diff0 [0 2 -1 0 0 0 0] 7.465e-06

fuelDiffModels[2]
  zone size = 1936
diffusivityModels::fixedDiffusivity: 
   diff0 = diff0 [0 2 -1 0 0 0 0] 1.8885e-06

diffSpFuel[CH3OH]
    internalField min mean max = 1.8885e-06  1.353507e-05  2.11143e-05

fuelSpecies CO2

fuelDiffModels[0]
  zone size = 39776
diffusivityModels::fixedDiffusivity: 
   diff0 = diff0 [0 2 -1 0 0 0 0] 2.11143e-05

fuelDiffModels[1]
  zone size = 19360
diffusivityModels::fixedDiffusivity: 
   diff0 = diff0 [0 2 -1 0 0 0 0] 7.465e-06

fuelDiffModels[2]
  zone size = 1936
diffusivityModels::fixedDiffusivity: 
   diff0 = diff0 [0 2 -1 0 0 0 0] 1.8885e-06

diffSpFuel[CO2]
    internalField min mean max = 1.8885e-06  1.353507e-05  2.11143e-05

airSpecies O2

airDiffModels[0]
  zone size = 39776
diffusivityModels::binaryFSG:
    diffusing speciesA molWt diffVol: O2 31.9988 16.3
   background speciesB molWt diffVol: N2 28.0134 18.5
diffusivityModels::binaryFSG:
    diffusing speciesA molWt diffVol: O2 31.9988 16.3
   background speciesB molWt diffVol: H2O 18.01534 13.1

airDiffModels[1]
  zone size = 19360
diffusivityModels::porousFSG:
    diffusing speciesA molWt diffVol:  O2 31.9988 16.3
    background speciesB molWt diffVol: N2 28.0134 18.5
    dPore      = dPore [0 1 0 0 0 0 0] 2.64e-05
    porosity   = 1
    tortuosity = 1.5
diffusivityModels::porousFSG:
    diffusing speciesA molWt diffVol:  O2 31.9988 16.3
    background speciesB molWt diffVol: H2O 18.01534 13.1
    dPore      = dPore [0 1 0 0 0 0 0] 2.64e-05
    porosity   = 1
    tortuosity = 1.5

airDiffModels[2]
  zone size = 1936
diffusivityModels::porousFSG:
    diffusing speciesA molWt diffVol:  O2 31.9988 16.3
    background speciesB molWt diffVol: N2 28.0134 18.5
    dPore      = dPore [0 1 0 0 0 0 0] 1.19e-07
    porosity   = 1
    tortuosity = 1.5
diffusivityModels::porousFSG:
    diffusing speciesA molWt diffVol:  O2 31.9988 16.3
    background speciesB molWt diffVol: H2O 18.01534 13.1
    dPore      = dPore [0 1 0 0 0 0 0] 1.19e-07
    porosity   = 1
    tortuosity = 1.5

diffSpAir[O2]
    internalField min mean max = 7.743505e-06  2.357133e-05  2.952274e-05

airSpecies H2O

airDiffModels[0]
  zone size = 39776
diffusivityModels::binaryFSG:
    diffusing speciesA molWt diffVol: H2O 18.01534 13.1
   background speciesB molWt diffVol: O2 31.9988 16.3
diffusivityModels::binaryFSG:
    diffusing speciesA molWt diffVol: H2O 18.01534 13.1
   background speciesB molWt diffVol: N2 28.0134 18.5

airDiffModels[1]
  zone size = 19360
diffusivityModels::porousFSG:
    diffusing speciesA molWt diffVol:  H2O 18.01534 13.1
    background speciesB molWt diffVol: O2 31.9988 16.3
    dPore      = dPore [0 1 0 0 0 0 0] 2.64e-05
    porosity   = 1
    tortuosity = 1.5
diffusivityModels::porousFSG:
    diffusing speciesA molWt diffVol:  H2O 18.01534 13.1
    background speciesB molWt diffVol: N2 28.0134 18.5
    dPore      = dPore [0 1 0 0 0 0 0] 2.64e-05
    porosity   = 1
    tortuosity = 1.5

airDiffModels[2]
  zone size = 1936
diffusivityModels::porousFSG:
    diffusing speciesA molWt diffVol:  H2O 18.01534 13.1
    background speciesB molWt diffVol: O2 31.9988 16.3
    dPore      = dPore [0 1 0 0 0 0 0] 1.19e-07
    porosity   = 1
    tortuosity = 1.5
diffusivityModels::porousFSG:
    diffusing speciesA molWt diffVol:  H2O 18.01534 13.1
    background speciesB molWt diffVol: N2 28.0134 18.5
    dPore      = dPore [0 1 0 0 0 0 0] 1.19e-07
    porosity   = 1
    tortuosity = 1.5

diffSpAir[H2O]
    internalField min mean max = 9.836488e-06  2.797415e-05  3.498617e-05

Solving air scalars
 Yair[0].name() = YO2air
DILUPBiCG:  Solving for YO2air, Initial residual = 0.9999966, Final residual = 5.71627e-10, No Iterations 47
 Yair[1].name() = YN2air
 Yair[2].name() = YH2Oair
DILUPBiCG:  Solving for YH2Oair, Initial residual = 0.9999976, Final residual = 5.126354e-10, No Iterations 49
inertIndex = 1
min,mean,max(YO2air): 0.1818093 , 0.1966068 , 0.1999999
min,mean,max(YN2air): 0.6496947 , 0.6500039 , 0.6507168
min,mean,max(YH2Oair): 0.1500001 , 0.1533893 , 0.167527

Solving fuel scalars
 Yfuel[0].name() = YCH3OHfuel
DILUPBiCG:  Solving for YCH3OHfuel, Initial residual = 0.9999701, Final residual = 8.498887e-10, No Iterations 37
 Yfuel[1].name() = YH2Ofuel
 Yfuel[2].name() = YCO2fuel
DILUPBiCG:  Solving for YCO2fuel, Initial residual = 1, Final residual = 5.012768e-10, No Iterations 37
inertIndex = 1
min,mean,max(YCH3OHfuel): 0.8792512 , 0.8965803 , 0.9
min,mean,max(YH2Ofuel): 0.09941988 , 0.09990439 , 0.1
min,mean,max(YCO2fuel): 6.695764e-10 , 0.003515263 , 0.02132894

Solving electrochemistry
min,max(anodeT): 353.5021 , 353.8746
min,max(cathodeT): 353.5038 , 353.875
min,mean,max(XCH3OH): 0.8204834 , 0.8295322 , 0.8332108
min,mean,max(XCO2): 0.001791078 , 0.005469699 , 0.01451842
min,mean,max(XO2): 0.1487134 , 0.1594649 , 0.163529
min,mean,max(XH2O): 0.2230867 , 0.2287112 , 0.2434265
min,mean,max Nernst = 1.562495  1.569086  1.574758

min,max(pSatAnode): 47990.84 , 48718.72
min,max(pSatCathode): 47994.13 , 48719.38
min,mean,max(wActivityAnode): 0.3431693 , 0.3451369  0.3486134
min,mean,max(wActivityCathode): 0.4711352 , 0.4784385  0.5077515
min,mean,max(a): 0.8182352 , 0.8235754  0.8519308
min, mean, max (lambda): 7.141719 , 7.274445  8.016097
min,mean,max(sigma): 6.09601  6.219532  6.918468
min,mean,max (RiMem) = 1.868682e-05  2.043087e-05  2.077601e-05
min,mean,max (ASR)= 2.310561e-05 2.484966e-05 2.51948e-05
min,mean,max(concentrationO2)= 5.180754  5.518878  5.650753
min,mean,max(concentrationMe)= 28.09815  28.52566  28.72052
min,mean,max (cathodeT) = 353.5038  353.7429  353.875
min,mean,max (i0Ca) = 0.04328698  0.04402273  0.04443288
min,mean,max (anodeT) = 353.5021  353.7417  353.8746
min,mean,max (i0An) = 95.39416  96.17966  96.61718
min,mean,max (iLCa) = 37808.87  40262.31  41190.09
min,mean,max (etaActCa) = 0.6109056  0.6144478  0.6172951
min,mean,max (etaActCa) = 0.3422585  0.3448776  0.3477315
min,mean,max (etaConCa) = 0.002428455  0.002450159  0.002518973
min,mean,max (etaOhmic) = 0.00870159  0.009759381  0.01034569

Solve current

layer 1

sumVolume: 6.1468e-08
min,max(Nernst): 1.562495 , 1.574758
    Ibar = 392.6738    V = 0.6

stack Voltage =0.6
min,mean,max(current): 376.1259 , 392.6738 , 412.6236

Calculating electrochemical heating
anodeEntropyChange  min max: -4.56694 -4.565481
cathodeEntropyChange  min max: 44.74462 44.75461
totalEntropyChange  min max: 40.17914 40.18767
totalEntropySource  min max: -14221.41 -14215.03  -14203.48
min,mean,max(electrochemicalHeating): 187346.5  197222.1  208480
fuel species electrochemical fluxes and YEqn BCs
s species[] isFlux[] mflux[] = 0 CH3OH true -0.02103717
s species[] isFlux[] mflux[] = 1 H2O false 0
s species[] isFlux[] mflux[] = 2 CO2 true 0.02889656


fuel mass rates: 
   inlet: 2.3898e-05   outlet: 2.490755e-05   anode: 3.929695e-09
CH3OH mass rates: 
   inlet = 2.15082e-05   outlet = 2.237503e-05   chem = 1.051858e-08
      utilization by chemRate = 0.0004890499
      utilization by outRate  = -0.04030243


air species electrochemical fluxes and YEqn BCs
s species[] isFlux[] mflux[] = 0 O2 true -0.03151635
s species[] isFlux[] mflux[] = 1 N2 false 0
s species[] isFlux[] mflux[] = 2 H2O true 0.03548741


air mass rates: 
   inlet: 1.9194e-05   outlet: 2.032877e-05   cathode: 1.98553e-09
O2 mass rates: 
   inlet = 3.8388e-06   outlet = 4.016706e-06   chem = 1.575818e-08
      utilization by chemRate = 0.004104975
      utilization by outRate  = -0.04634405

min mean max rhoCpF(fuel) = 1565.942 1578.036 1582.119


min mean max rhoCpF(air) = 1044.425 1047.312 1058.75
ELECTROLYTE FLUX MAPPING ACTIVATED
time step continuity errors : sum local = 0.01173813, global = 0.005040457

Solving energy
--> FOAM Warning : 
    From function Foam::fv::gaussConvectionScheme<Type>::gaussConvectionScheme(const Foam::fvMesh&, const surfaceScalarField&, Foam::Istream&) [with Type = double; Foam::surfaceScalarField = Foam::GeometricField<double, Foam::fvsPatchField, Foam::surfaceMesh>]
    in file finiteVolume/convectionSchemes/gaussConvectionScheme/gaussConvectionScheme.H at line 124
    Reading "/home/fatima/OpenFOAM/fatima-4.0/run/pemfcSinglePhaseModel-4.0/run/system/fvSchemes.divSchemes.div(rhoCpPhi,T)" at line 31
    Unbounded 'Gauss' div scheme used in steady-state solver, use 'bounded Gauss' to ensure boundedness.
    To remove this warning switch off 'warnUnboundedGauss' in "/home/fatima/OpenFOAM/OpenFOAM-4.0/etc/controlDict"
DILUPBiCG:  Solving for T, Initial residual = 0.2361476, Final residual = 7.465342e-19, No Iterations 503
T min mean max     = 353.0011    353.1939    353.2582

 sum TcellEqn.source() =   0.05157092

ExecutionTime = 39.54 s


Time = 3

Tfuel min mean max = 353.0011    353.1758    353.2576
Tair min mean max  = 353.007    353.1954    353.2577
min,mean,max(rhoFuel): 1.025694   1.027073   1.031567
min,mean,max(rhoAir): 0.903143   0.9119141   0.9148264
min,mean,max(muFuel): 1.153872e-05   1.15657e-05   1.167417e-05
min,mean,max(muAir): 1.928263e-05   1.945128e-05   1.949091e-05
min,mean,max(kFuel): 0.02024591   0.02026536   0.0202877
min,mean,max(kAir): 0.02908083   0.02918054   0.02920429

Solving air flow
--> FOAM Warning : 
    From function Foam::fv::gaussConvectionScheme<Type>::gaussConvectionScheme(const Foam::fvMesh&, const surfaceScalarField&, Foam::Istream&) [with Type = Foam::Vector<double>; Foam::surfaceScalarField = Foam::GeometricField<double, Foam::fvsPatchField, Foam::surfaceMesh>]
    in file finiteVolume/convectionSchemes/gaussConvectionScheme/gaussConvectionScheme.H at line 124
    Reading "/home/fatima/OpenFOAM/fatima-4.0/run/pemfcSinglePhaseModel-4.0/run/system/air/fvSchemes.divSchemes.div(phi,U)" at line 32
    Unbounded 'Gauss' div scheme used in steady-state solver, use 'bounded Gauss' to ensure boundedness.
    To remove this warning switch off 'warnUnboundedGauss' in "/home/fatima/OpenFOAM/OpenFOAM-4.0/etc/controlDict"
DILUPBiCG:  Solving for Ux, Initial residual = 0.200598, Final residual = 4.33273e-11, No Iterations 6
DILUPBiCG:  Solving for Uy, Initial residual = 0.2433909, Final residual = 1.678119e-10, No Iterations 5
DILUPBiCG:  Solving for Uz, Initial residual = 0.08967177, Final residual = 4.731287e-10, No Iterations 5
DICPCG:  Solving for p, Initial residual = 0.09439925, Final residual = 9.876083e-10, No Iterations 220
time step continuity errors : sum local = 1.93473e-06, global = 2.157227e-11
DICPCG:  Solving for p, Initial residual = 0.3119033, Final residual = 7.721797e-10, No Iterations 226
time step continuity errors : sum local = 1.933459e-06, global = 6.399746e-10

Solving fuel flow
--> FOAM Warning : 
    From function Foam::fv::gaussConvectionScheme<Type>::gaussConvectionScheme(const Foam::fvMesh&, const surfaceScalarField&, Foam::Istream&) [with Type = Foam::Vector<double>; Foam::surfaceScalarField = Foam::GeometricField<double, Foam::fvsPatchField, Foam::surfaceMesh>]
    in file finiteVolume/convectionSchemes/gaussConvectionScheme/gaussConvectionScheme.H at line 124
    Reading "/home/fatima/OpenFOAM/fatima-4.0/run/pemfcSinglePhaseModel-4.0/run/system/fuel/fvSchemes.divSchemes.div(phi,U)" at line 32
    Unbounded 'Gauss' div scheme used in steady-state solver, use 'bounded Gauss' to ensure boundedness.
    To remove this warning switch off 'warnUnboundedGauss' in "/home/fatima/OpenFOAM/OpenFOAM-4.0/etc/controlDict"
DILUPBiCG:  Solving for Ux, Initial residual = 0.2105513, Final residual = 6.190364e-10, No Iterations 6
DILUPBiCG:  Solving for Uy, Initial residual = 0.2523504, Final residual = 1.247977e-10, No Iterations 6
DILUPBiCG:  Solving for Uz, Initial residual = 0.1000519, Final residual = 5.304089e-10, No Iterations 6
DICPCG:  Solving for p, Initial residual = 0.09773594, Final residual = 7.445064e-10, No Iterations 211
time step continuity errors : sum local = 3.428926e-06, global = 8.302506e-10
DICPCG:  Solving for p, Initial residual = 0.1933337, Final residual = 6.725094e-10, No Iterations 213
time step continuity errors : sum local = 3.414889e-06, global = -4.92793e-09
ReFuel = 98.61638
ReAir  = 46.90843

fuelSpecies CH3OH

fuelDiffModels[0]
  zone size = 39776
diffusivityModels::fixedDiffusivity: 
   diff0 = diff0 [0 2 -1 0 0 0 0] 2.11143e-05

fuelDiffModels[1]
  zone size = 19360
diffusivityModels::fixedDiffusivity: 
   diff0 = diff0 [0 2 -1 0 0 0 0] 7.465e-06

fuelDiffModels[2]
  zone size = 1936
diffusivityModels::fixedDiffusivity: 
   diff0 = diff0 [0 2 -1 0 0 0 0] 1.8885e-06

diffSpFuel[CH3OH]
    internalField min mean max = 1.8885e-06  1.353507e-05  2.11143e-05

fuelSpecies CO2

fuelDiffModels[0]
  zone size = 39776
diffusivityModels::fixedDiffusivity: 
   diff0 = diff0 [0 2 -1 0 0 0 0] 2.11143e-05

fuelDiffModels[1]
  zone size = 19360
diffusivityModels::fixedDiffusivity: 
   diff0 = diff0 [0 2 -1 0 0 0 0] 7.465e-06

fuelDiffModels[2]
  zone size = 1936
diffusivityModels::fixedDiffusivity: 
   diff0 = diff0 [0 2 -1 0 0 0 0] 1.8885e-06

diffSpFuel[CO2]
    internalField min mean max = 1.8885e-06  1.353507e-05  2.11143e-05

airSpecies O2

airDiffModels[0]
  zone size = 39776
diffusivityModels::binaryFSG:
    diffusing speciesA molWt diffVol: O2 31.9988 16.3
   background speciesB molWt diffVol: N2 28.0134 18.5
diffusivityModels::binaryFSG:
    diffusing speciesA molWt diffVol: O2 31.9988 16.3
   background speciesB molWt diffVol: H2O 18.01534 13.1

airDiffModels[1]
  zone size = 19360
diffusivityModels::porousFSG:
    diffusing speciesA molWt diffVol:  O2 31.9988 16.3
    background speciesB molWt diffVol: N2 28.0134 18.5
    dPore      = dPore [0 1 0 0 0 0 0] 2.64e-05
    porosity   = 1
    tortuosity = 1.5
diffusivityModels::porousFSG:
    diffusing speciesA molWt diffVol:  O2 31.9988 16.3
    background speciesB molWt diffVol: H2O 18.01534 13.1
    dPore      = dPore [0 1 0 0 0 0 0] 2.64e-05
    porosity   = 1
    tortuosity = 1.5

airDiffModels[2]
  zone size = 1936
diffusivityModels::porousFSG:
    diffusing speciesA molWt diffVol:  O2 31.9988 16.3
    background speciesB molWt diffVol: N2 28.0134 18.5
    dPore      = dPore [0 1 0 0 0 0 0] 1.19e-07
    porosity   = 1
    tortuosity = 1.5
diffusivityModels::porousFSG:
    diffusing speciesA molWt diffVol:  O2 31.9988 16.3
    background speciesB molWt diffVol: H2O 18.01534 13.1
    dPore      = dPore [0 1 0 0 0 0 0] 1.19e-07
    porosity   = 1
    tortuosity = 1.5

diffSpAir[O2]
    internalField min mean max = 7.739772e-06  2.354705e-05  2.950792e-05

airSpecies H2O

airDiffModels[0]
  zone size = 39776
diffusivityModels::binaryFSG:
    diffusing speciesA molWt diffVol: H2O 18.01534 13.1
   background speciesB molWt diffVol: O2 31.9988 16.3
diffusivityModels::binaryFSG:
    diffusing speciesA molWt diffVol: H2O 18.01534 13.1
   background speciesB molWt diffVol: N2 28.0134 18.5

airDiffModels[1]
  zone size = 19360
diffusivityModels::porousFSG:
    diffusing speciesA molWt diffVol:  H2O 18.01534 13.1
    background speciesB molWt diffVol: O2 31.9988 16.3
    dPore      = dPore [0 1 0 0 0 0 0] 2.64e-05
    porosity   = 1
    tortuosity = 1.5
diffusivityModels::porousFSG:
    diffusing speciesA molWt diffVol:  H2O 18.01534 13.1
    background speciesB molWt diffVol: N2 28.0134 18.5
    dPore      = dPore [0 1 0 0 0 0 0] 2.64e-05
    porosity   = 1
    tortuosity = 1.5

airDiffModels[2]
  zone size = 1936
diffusivityModels::porousFSG:
    diffusing speciesA molWt diffVol:  H2O 18.01534 13.1
    background speciesB molWt diffVol: O2 31.9988 16.3
    dPore      = dPore [0 1 0 0 0 0 0] 1.19e-07
    porosity   = 1
    tortuosity = 1.5
diffusivityModels::porousFSG:
    diffusing speciesA molWt diffVol:  H2O 18.01534 13.1
    background speciesB molWt diffVol: N2 28.0134 18.5
    dPore      = dPore [0 1 0 0 0 0 0] 1.19e-07
    porosity   = 1
    tortuosity = 1.5

diffSpAir[H2O]
    internalField min mean max = 9.829138e-06  2.792102e-05  3.487936e-05

Solving air scalars
 Yair[0].name() = YO2air
DILUPBiCG:  Solving for YO2air, Initial residual = 0.1769896, Final residual = 7.069921e-10, No Iterations 45
 Yair[1].name() = YN2air
 Yair[2].name() = YH2Oair
DILUPBiCG:  Solving for YH2Oair, Initial residual = 0.1769625, Final residual = 6.268139e-10, No Iterations 47
inertIndex = 1
min,mean,max(YO2air): 0.1937666 , 0.1988206 , 0.2
min,mean,max(YN2air): 0.6498938 , 0.650002 , 0.6502515
min,mean,max(YH2Oair): 0.15 , 0.1511774 , 0.1560013

Solving fuel scalars
 Yfuel[0].name() = YCH3OHfuel
DILUPBiCG:  Solving for YCH3OHfuel, Initial residual = 0.1481247, Final residual = 6.530913e-10, No Iterations 36
 Yfuel[1].name() = YH2Ofuel
 Yfuel[2].name() = YCO2fuel
DILUPBiCG:  Solving for YCO2fuel, Initial residual = 0.1481257, Final residual = 3.685346e-10, No Iterations 42
inertIndex = 1
min,mean,max(YCH3OHfuel): 0.8929679 , 0.8988264 , 0.9
min,mean,max(YH2Ofuel): 0.09980339 , 0.09996719 , 0.1
min,mean,max(YCO2fuel): 1.75462e-10 , 0.001206385 , 0.007228699

Solving electrochemistry
min,max(anodeT): 353.1476 , 353.2578
min,max(cathodeT): 353.1483 , 353.2579
min,mean,max(XCH3OH): 0.8301005 , 0.8331233 , 0.8343636
min,mean,max(XCO2): 0.0006382623 , 0.001878529 , 0.004901386
min,mean,max(XO2): 0.1596789 , 0.1633699 , 0.1647794
min,mean,max(XH2O): 0.2213578 , 0.2233066 , 0.2283535
min,mean,max Nernst = 1.569175  1.574854  1.580078

min,max(pSatAnode): 47306.72 , 47518.45
min,max(pSatCathode): 47307.89 , 47518.59
min,mean,max(wActivityAnode): 0.3518325 , 0.3524285  0.3534964
min,mean,max(wActivityCathode): 0.4741919 , 0.4769681  0.4873492
min,mean,max(a): 0.8274491 , 0.8293966  0.8394923
min, mean, max (lambda): 7.36952 , 7.418958  7.679974
min,mean,max(sigma): 6.272968  6.321201  6.565543
min,mean,max (RiMem) = 1.943814e-05  2.009163e-05  2.023779e-05
min,mean,max (ASR)= 2.385693e-05 2.451042e-05 2.465657e-05
min,mean,max(concentrationO2)= 5.4686  5.624567  5.687063
min,mean,max(concentrationMe)= 28.74974  28.79562  28.826
min,mean,max (cathodeT) = 353.1483  353.2193  353.2579
min,mean,max (i0Ca) = 0.04221481  0.04242721  0.04254274
min,mean,max (anodeT) = 353.1476  353.219  353.2578
min,mean,max (i0An) = 94.24238  94.47327  94.59909
min,mean,max (iLCa) = 39925.55  41008.7  41433.89
min,mean,max (etaActCa) = 0.615273  0.6180039  0.6205054
min,mean,max (etaActCa) = 0.3444383  0.3469051  0.3494109
min,mean,max (etaConCa) = 0.002441093  0.002485484  0.002567679
min,mean,max (etaOhmic) = 0.009307749  0.009944611  0.01038878

Solve current

layer 1

sumVolume: 6.1468e-08
min,max(Nernst): 1.569175 , 1.580078
    Ibar = 405.7062    V = 0.6

stack Voltage =0.6
min,mean,max(current): 389.6112 , 405.7062 , 423.2168

Calculating electrochemical heating
anodeEntropyChange  min max: -4.564515 -4.564084
cathodeEntropyChange  min max: 44.73504 44.73799
totalEntropyChange  min max: 40.17095 40.17348
totalEntropySource  min max: -14191.6 -14189.73  -14186.3
min,mean,max(electrochemicalHeating): 195997.5  205482.9  215577.3
fuel species electrochemical fluxes and YEqn BCs
s species[] isFlux[] mflux[] = 0 CH3OH true -0.02173537
s species[] isFlux[] mflux[] = 1 H2O false 0
s species[] isFlux[] mflux[] = 2 CO2 true 0.0298556


fuel mass rates: 
   inlet: 2.3898e-05   outlet: 3.163962e-05   anode: 4.060117e-09
CH3OH mass rates: 
   inlet = 2.15082e-05   outlet = 2.845659e-05   chem = 1.086768e-08
      utilization by chemRate = 0.0005052809
      utilization by outRate  = -0.3230578


air species electrochemical fluxes and YEqn BCs
s species[] isFlux[] mflux[] = 0 O2 true -0.03256234
s species[] isFlux[] mflux[] = 1 N2 false 0
s species[] isFlux[] mflux[] = 2 H2O true 0.0366652


air mass rates: 
   inlet: 1.9194e-05   outlet: 2.574476e-05   cathode: 2.051428e-09
O2 mass rates: 
   inlet = 3.8388e-06   outlet = 5.127154e-06   chem = 1.628117e-08
      utilization by chemRate = 0.004241214
      utilization by outRate  = -0.3356136

min mean max rhoCpF(fuel) = 1580.579 1581.93 1585.208


min mean max rhoCpF(air) = 1038.52 1044.381 1046.668
ELECTROLYTE FLUX MAPPING ACTIVATED
time step continuity errors : sum local = 0.004104682, global = 0.001760119

Solving energy
--> FOAM Warning : 
    From function Foam::fv::gaussConvectionScheme<Type>::gaussConvectionScheme(const Foam::fvMesh&, const surfaceScalarField&, Foam::Istream&) [with Type = double; Foam::surfaceScalarField = Foam::GeometricField<double, Foam::fvsPatchField, Foam::surfaceMesh>]
    in file finiteVolume/convectionSchemes/gaussConvectionScheme/gaussConvectionScheme.H at line 124
    Reading "/home/fatima/OpenFOAM/fatima-4.0/run/pemfcSinglePhaseModel-4.0/run/system/fvSchemes.divSchemes.div(rhoCpPhi,T)" at line 31
    Unbounded 'Gauss' div scheme used in steady-state solver, use 'bounded Gauss' to ensure boundedness.
    To remove this warning switch off 'warnUnboundedGauss' in "/home/fatima/OpenFOAM/OpenFOAM-4.0/etc/controlDict"
DILUPBiCG:  Solving for T, Initial residual = 0.02706927, Final residual = 7.760179e-19, No Iterations 508
T min mean max     = 353.0013    353.2027    353.27

 sum TcellEqn.source() =   0.02589162

ExecutionTime = 56.31 s


Time = 4

Tfuel min mean max = 353.0013    353.184    353.2694
Tair min mean max  = 353.0079    353.204    353.2694
min,mean,max(rhoFuel): 1.025596   1.026159   1.027546
min,mean,max(rhoAir): 0.9097836   0.9128441   0.9141728
min,mean,max(muFuel): 1.153872e-05   1.155219e-05   1.159032e-05
min,mean,max(muAir): 1.942174e-05   1.947801e-05   1.949162e-05
min,mean,max(kFuel): 0.02024593   0.02026393   0.02027574
min,mean,max(kAir): 0.02916514   0.02919714   0.02920587

Solving air flow
--> FOAM Warning : 
    From function Foam::fv::gaussConvectionScheme<Type>::gaussConvectionScheme(const Foam::fvMesh&, const surfaceScalarField&, Foam::Istream&) [with Type = Foam::Vector<double>; Foam::surfaceScalarField = Foam::GeometricField<double, Foam::fvsPatchField, Foam::surfaceMesh>]
    in file finiteVolume/convectionSchemes/gaussConvectionScheme/gaussConvectionScheme.H at line 124
    Reading "/home/fatima/OpenFOAM/fatima-4.0/run/pemfcSinglePhaseModel-4.0/run/system/air/fvSchemes.divSchemes.div(phi,U)" at line 32
    Unbounded 'Gauss' div scheme used in steady-state solver, use 'bounded Gauss' to ensure boundedness.
    To remove this warning switch off 'warnUnboundedGauss' in "/home/fatima/OpenFOAM/OpenFOAM-4.0/etc/controlDict"
DILUPBiCG:  Solving for Ux, Initial residual = 0.09104397, Final residual = 2.451197e-11, No Iterations 6
DILUPBiCG:  Solving for Uy, Initial residual = 0.139644, Final residual = 3.912762e-10, No Iterations 5
DILUPBiCG:  Solving for Uz, Initial residual = 0.01734839, Final residual = 1.171121e-10, No Iterations 5
DICPCG:  Solving for p, Initial residual = 0.2252604, Final residual = 8.259132e-10, No Iterations 225
time step continuity errors : sum local = 1.924094e-06, global = -4.284796e-09
DICPCG:  Solving for p, Initial residual = 0.08509175, Final residual = 9.865765e-10, No Iterations 216
time step continuity errors : sum local = 1.881688e-06, global = 5.493971e-09

Solving fuel flow
--> FOAM Warning : 
    From function Foam::fv::gaussConvectionScheme<Type>::gaussConvectionScheme(const Foam::fvMesh&, const surfaceScalarField&, Foam::Istream&) [with Type = Foam::Vector<double>; Foam::surfaceScalarField = Foam::GeometricField<double, Foam::fvsPatchField, Foam::surfaceMesh>]
    in file finiteVolume/convectionSchemes/gaussConvectionScheme/gaussConvectionScheme.H at line 124
    Reading "/home/fatima/OpenFOAM/fatima-4.0/run/pemfcSinglePhaseModel-4.0/run/system/fuel/fvSchemes.divSchemes.div(phi,U)" at line 32
    Unbounded 'Gauss' div scheme used in steady-state solver, use 'bounded Gauss' to ensure boundedness.
    To remove this warning switch off 'warnUnboundedGauss' in "/home/fatima/OpenFOAM/OpenFOAM-4.0/etc/controlDict"
DILUPBiCG:  Solving for Ux, Initial residual = 0.1180591, Final residual = 4.280736e-11, No Iterations 7
DILUPBiCG:  Solving for Uy, Initial residual = 0.169167, Final residual = 2.720044e-10, No Iterations 6
DILUPBiCG:  Solving for Uz, Initial residual = 0.0254621, Final residual = 2.121012e-10, No Iterations 6
DICPCG:  Solving for p, Initial residual = 0.2102232, Final residual = 9.142044e-10, No Iterations 212
time step continuity errors : sum local = 3.425932e-06, global = -4.518253e-09
DICPCG:  Solving for p, Initial residual = 0.1099509, Final residual = 8.677557e-10, No Iterations 209
time step continuity errors : sum local = 3.39188e-06, global = -5.182783e-09
ReFuel = 98.6159
ReAir  = 46.90747

fuelSpecies CH3OH

fuelDiffModels[0]
  zone size = 39776
diffusivityModels::fixedDiffusivity: 
   diff0 = diff0 [0 2 -1 0 0 0 0] 2.11143e-05

fuelDiffModels[1]
  zone size = 19360
diffusivityModels::fixedDiffusivity: 
   diff0 = diff0 [0 2 -1 0 0 0 0] 7.465e-06

fuelDiffModels[2]
  zone size = 1936
diffusivityModels::fixedDiffusivity: 
   diff0 = diff0 [0 2 -1 0 0 0 0] 1.8885e-06

diffSpFuel[CH3OH]
    internalField min mean max = 1.8885e-06  1.353507e-05  2.11143e-05

fuelSpecies CO2

fuelDiffModels[0]
  zone size = 39776
diffusivityModels::fixedDiffusivity: 
   diff0 = diff0 [0 2 -1 0 0 0 0] 2.11143e-05

fuelDiffModels[1]
  zone size = 19360
diffusivityModels::fixedDiffusivity: 
   diff0 = diff0 [0 2 -1 0 0 0 0] 7.465e-06

fuelDiffModels[2]
  zone size = 1936
diffusivityModels::fixedDiffusivity: 
   diff0 = diff0 [0 2 -1 0 0 0 0] 1.8885e-06

diffSpFuel[CO2]
    internalField min mean max = 1.8885e-06  1.353507e-05  2.11143e-05

airSpecies O2

airDiffModels[0]
  zone size = 39776
diffusivityModels::binaryFSG:
    diffusing speciesA molWt diffVol: O2 31.9988 16.3
   background speciesB molWt diffVol: N2 28.0134 18.5
diffusivityModels::binaryFSG:
    diffusing speciesA molWt diffVol: O2 31.9988 16.3
   background speciesB molWt diffVol: H2O 18.01534 13.1

airDiffModels[1]
  zone size = 19360
diffusivityModels::porousFSG:
    diffusing speciesA molWt diffVol:  O2 31.9988 16.3
    background speciesB molWt diffVol: N2 28.0134 18.5
    dPore      = dPore [0 1 0 0 0 0 0] 2.64e-05
    porosity   = 1
    tortuosity = 1.5
diffusivityModels::porousFSG:
    diffusing speciesA molWt diffVol:  O2 31.9988 16.3
    background speciesB molWt diffVol: H2O 18.01534 13.1
    dPore      = dPore [0 1 0 0 0 0 0] 2.64e-05
    porosity   = 1
    tortuosity = 1.5

airDiffModels[2]
  zone size = 1936
diffusivityModels::porousFSG:
    diffusing speciesA molWt diffVol:  O2 31.9988 16.3
    background speciesB molWt diffVol: N2 28.0134 18.5
    dPore      = dPore [0 1 0 0 0 0 0] 1.19e-07
    porosity   = 1
    tortuosity = 1.5
diffusivityModels::porousFSG:
    diffusing speciesA molWt diffVol:  O2 31.9988 16.3
    background speciesB molWt diffVol: H2O 18.01534 13.1
    dPore      = dPore [0 1 0 0 0 0 0] 1.19e-07
    porosity   = 1
    tortuosity = 1.5

diffSpAir[O2]
    internalField min mean max = 7.740368e-06  2.354186e-05  2.946141e-05

airSpecies H2O

airDiffModels[0]
  zone size = 39776
diffusivityModels::binaryFSG:
    diffusing speciesA molWt diffVol: H2O 18.01534 13.1
   background speciesB molWt diffVol: O2 31.9988 16.3
diffusivityModels::binaryFSG:
    diffusing speciesA molWt diffVol: H2O 18.01534 13.1
   background speciesB molWt diffVol: N2 28.0134 18.5

airDiffModels[1]
  zone size = 19360
diffusivityModels::porousFSG:
    diffusing speciesA molWt diffVol:  H2O 18.01534 13.1
    background speciesB molWt diffVol: O2 31.9988 16.3
    dPore      = dPore [0 1 0 0 0 0 0] 2.64e-05
    porosity   = 1
    tortuosity = 1.5
diffusivityModels::porousFSG:
    diffusing speciesA molWt diffVol:  H2O 18.01534 13.1
    background speciesB molWt diffVol: N2 28.0134 18.5
    dPore      = dPore [0 1 0 0 0 0 0] 2.64e-05
    porosity   = 1
    tortuosity = 1.5

airDiffModels[2]
  zone size = 1936
diffusivityModels::porousFSG:
    diffusing speciesA molWt diffVol:  H2O 18.01534 13.1
    background speciesB molWt diffVol: O2 31.9988 16.3
    dPore      = dPore [0 1 0 0 0 0 0] 1.19e-07
    porosity   = 1
    tortuosity = 1.5
diffusivityModels::porousFSG:
    diffusing speciesA molWt diffVol:  H2O 18.01534 13.1
    background speciesB molWt diffVol: N2 28.0134 18.5
    dPore      = dPore [0 1 0 0 0 0 0] 1.19e-07
    porosity   = 1
    tortuosity = 1.5

diffSpAir[H2O]
    internalField min mean max = 9.831642e-06  2.793067e-05  3.488438e-05

Solving air scalars
 Yair[0].name() = YO2air
DILUPBiCG:  Solving for YO2air, Initial residual = 0.01872843, Final residual = 5.128616e-10, No Iterations 42
 Yair[1].name() = YN2air
 Yair[2].name() = YH2Oair
DILUPBiCG:  Solving for YH2Oair, Initial residual = 0.01831104, Final residual = 3.077961e-10, No Iterations 43
inertIndex = 1
min,mean,max(YO2air): 0.1934602 , 0.1987735 , 0.2
min,mean,max(YN2air): 0.6498881 , 0.6500015 , 0.6502588
min,mean,max(YH2Oair): 0.15 , 0.151225 , 0.1562975

Solving fuel scalars
 Yfuel[0].name() = YCH3OHfuel
DILUPBiCG:  Solving for YCH3OHfuel, Initial residual = 0.02020774, Final residual = 5.466445e-10, No Iterations 34
 Yfuel[1].name() = YH2Ofuel
 Yfuel[2].name() = YCO2fuel
DILUPBiCG:  Solving for YCO2fuel, Initial residual = 0.0202069, Final residual = 3.009e-10, No Iterations 34
inertIndex = 1
min,mean,max(YCH3OHfuel): 0.8926637 , 0.8987863 , 0.9
min,mean,max(YH2Ofuel): 0.09979488 , 0.09996607 , 0.1
min,mean,max(YCO2fuel): 1.63617e-10 , 0.001247619 , 0.007541461

Solving electrochemistry
min,max(anodeT): 353.1523 , 353.2696
min,max(cathodeT): 353.1531 , 353.2696
min,mean,max(XCH3OH): 0.8298881 , 0.833059 , 0.8343397
min,mean,max(XCO2): 0.0006621715 , 0.001942872 , 0.005113786
min,mean,max(XO2): 0.1593958 , 0.1632858 , 0.1647673
min,mean,max(XH2O): 0.2213757 , 0.2234239 , 0.2287437
min,mean,max Nernst = 1.56893  1.574681  1.579889

min,max(pSatAnode): 47315.74 , 47541.13
min,max(pSatCathode): 47317.21 , 47541.25
min,mean,max(wActivityAnode): 0.3516611 , 0.3522158  0.353289
min,mean,max(wActivityCathode): 0.4738812 , 0.4768943  0.487955
min,mean,max(a): 0.8269166 , 0.8291101  0.8399374
min, mean, max (lambda): 7.356128 , 7.411727  7.691729
min,mean,max(sigma): 6.260761  6.315099  6.577216
min,mean,max (RiMem) = 1.943541e-05  2.0112e-05  2.02756e-05
min,mean,max (ASR)= 2.38542e-05 2.453079e-05 2.469439e-05
min,mean,max(concentrationO2)= 5.500092  5.634526  5.687362
min,mean,max(concentrationMe)= 28.62792  28.74371  28.79838
min,mean,max (cathodeT) = 353.1531  353.2292  353.2696
min,mean,max (i0Ca) = 0.04222928  0.04245682  0.04257808
min,mean,max (anodeT) = 353.1523  353.2289  353.2696
min,mean,max (i0An) = 94.25759  94.50526  94.63729
min,mean,max (iLCa) = 40105.5  41067.8  41439.26
min,mean,max (etaActCa) = 0.6151747  0.6178974  0.62038
min,mean,max (etaActCa) = 0.3443553  0.346851  0.3493322
min,mean,max (etaConCa) = 0.002426986  0.002476804  0.002560745
min,mean,max (etaOhmic) = 0.00927327  0.009932661  0.01039733

Solve current

layer 1

sumVolume: 6.1468e-08
min,max(Nernst): 1.56893 , 1.579889
    Ibar = 404.8785    V = 0.6

stack Voltage =0.6
min,mean,max(current): 388.5911 , 404.8785 , 422.1323

Calculating electrochemical heating
anodeEntropyChange  min max: -4.564561 -4.564103
cathodeEntropyChange  min max: 44.73517 44.73831
totalEntropyChange  min max: 40.17106 40.17375
totalEntropySource  min max: -14192.17 -14190.21  -14186.54
min,mean,max(electrochemicalHeating): 195407.4  205007.9  214982.7
fuel species electrochemical fluxes and YEqn BCs
s species[] isFlux[] mflux[] = 0 CH3OH true -0.02169102
s species[] isFlux[] mflux[] = 1 H2O false 0
s species[] isFlux[] mflux[] = 2 CO2 true 0.02979469


fuel mass rates: 
   inlet: 2.3898e-05   outlet: 2.940553e-05   anode: 4.051834e-09
CH3OH mass rates: 
   inlet = 2.15082e-05   outlet = 2.644671e-05   chem = 1.084551e-08
      utilization by chemRate = 0.0005042501
      utilization by outRate  = -0.2296105


air species electrochemical fluxes and YEqn BCs
s species[] isFlux[] mflux[] = 0 O2 true -0.03249591
s species[] isFlux[] mflux[] = 1 N2 false 0
s species[] isFlux[] mflux[] = 2 H2O true 0.0365904


air mass rates: 
   inlet: 1.9194e-05   outlet: 2.37068e-05   cathode: 2.047243e-09
O2 mass rates: 
   inlet = 3.8388e-06   outlet = 4.720495e-06   chem = 1.624796e-08
      utilization by chemRate = 0.004232562
      utilization by outRate  = -0.22968

min mean max rhoCpF(fuel) = 1578.855 1580.516 1581.406


min mean max rhoCpF(air) = 1045.094 1045.489 1046.417
ELECTROLYTE FLUX MAPPING ACTIVATED
time step continuity errors : sum local = 0.004224451, global = 0.001815019

Solving energy
--> FOAM Warning : 
    From function Foam::fv::gaussConvectionScheme<Type>::gaussConvectionScheme(const Foam::fvMesh&, const surfaceScalarField&, Foam::Istream&) [with Type = double; Foam::surfaceScalarField = Foam::GeometricField<double, Foam::fvsPatchField, Foam::surfaceMesh>]
    in file finiteVolume/convectionSchemes/gaussConvectionScheme/gaussConvectionScheme.H at line 124
    Reading "/home/fatima/OpenFOAM/fatima-4.0/run/pemfcSinglePhaseModel-4.0/run/system/fvSchemes.divSchemes.div(rhoCpPhi,T)" at line 31
    Unbounded 'Gauss' div scheme used in steady-state solver, use 'bounded Gauss' to ensure boundedness.
    To remove this warning switch off 'warnUnboundedGauss' in "/home/fatima/OpenFOAM/OpenFOAM-4.0/etc/controlDict"
DILUPBiCG:  Solving for T, Initial residual = 0.01169197, Final residual = 9.529533e-19, No Iterations 459
T min mean max     = 353.0015    353.2035    353.2707

 sum TcellEqn.source() =   0.02634158

ExecutionTime = 71.8 s


Time = 5

Tfuel min mean max = 353.0015    353.1847    353.2701
Tair min mean max  = 353.0086    353.2046    353.2702
min,mean,max(rhoFuel): 1.025538   1.02596   1.027611
min,mean,max(rhoAir): 0.9095821   0.9125598   0.913671
min,mean,max(muFuel): 1.153873e-05   1.155246e-05   1.159221e-05
min,mean,max(muAir): 1.941821e-05   1.947747e-05   1.949162e-05
min,mean,max(kFuel): 0.02024595   0.02026404   0.020276
min,mean,max(kAir): 0.02916304   0.02919684   0.02920585

Solving air flow
--> FOAM Warning : 
    From function Foam::fv::gaussConvectionScheme<Type>::gaussConvectionScheme(const Foam::fvMesh&, const surfaceScalarField&, Foam::Istream&) [with Type = Foam::Vector<double>; Foam::surfaceScalarField = Foam::GeometricField<double, Foam::fvsPatchField, Foam::surfaceMesh>]
    in file finiteVolume/convectionSchemes/gaussConvectionScheme/gaussConvectionScheme.H at line 124
    Reading "/home/fatima/OpenFOAM/fatima-4.0/run/pemfcSinglePhaseModel-4.0/run/system/air/fvSchemes.divSchemes.div(phi,U)" at line 32
    Unbounded 'Gauss' div scheme used in steady-state solver, use 'bounded Gauss' to ensure boundedness.
    To remove this warning switch off 'warnUnboundedGauss' in "/home/fatima/OpenFOAM/OpenFOAM-4.0/etc/controlDict"
DILUPBiCG:  Solving for Ux, Initial residual = 0.104793, Final residual = 1.799039e-10, No Iterations 6
DILUPBiCG:  Solving for Uy, Initial residual = 0.1005126, Final residual = 2.896475e-11, No Iterations 6
DILUPBiCG:  Solving for Uz, Initial residual = 0.02713359, Final residual = 8.176194e-12, No Iterations 6
DICPCG:  Solving for p, Initial residual = 0.1750128, Final residual = 9.813249e-10, No Iterations 217
time step continuity errors : sum local = 1.879165e-06, global = 2.587183e-10
DICPCG:  Solving for p, Initial residual = 0.08735924, Final residual = 9.581888e-10, No Iterations 215
time step continuity errors : sum local = 1.885563e-06, global = 2.32688e-09

Solving fuel flow
--> FOAM Warning : 
    From function Foam::fv::gaussConvectionScheme<Type>::gaussConvectionScheme(const Foam::fvMesh&, const surfaceScalarField&, Foam::Istream&) [with Type = Foam::Vector<double>; Foam::surfaceScalarField = Foam::GeometricField<double, Foam::fvsPatchField, Foam::surfaceMesh>]
    in file finiteVolume/convectionSchemes/gaussConvectionScheme/gaussConvectionScheme.H at line 124
    Reading "/home/fatima/OpenFOAM/fatima-4.0/run/pemfcSinglePhaseModel-4.0/run/system/fuel/fvSchemes.divSchemes.div(phi,U)" at line 32
    Unbounded 'Gauss' div scheme used in steady-state solver, use 'bounded Gauss' to ensure boundedness.
    To remove this warning switch off 'warnUnboundedGauss' in "/home/fatima/OpenFOAM/OpenFOAM-4.0/etc/controlDict"
DILUPBiCG:  Solving for Ux, Initial residual = 0.1087191, Final residual = 5.981368e-10, No Iterations 6
DILUPBiCG:  Solving for Uy, Initial residual = 0.1111974, Final residual = 4.05087e-10, No Iterations 6
DILUPBiCG:  Solving for Uz, Initial residual = 0.02235465, Final residual = 9.7972e-11, No Iterations 6
DICPCG:  Solving for p, Initial residual = 0.2286757, Final residual = 8.872717e-10, No Iterations 209
time step continuity errors : sum local = 3.382446e-06, global = 6.186925e-09
DICPCG:  Solving for p, Initial residual = 0.08980455, Final residual = 8.14307e-10, No Iterations 201
time step continuity errors : sum local = 3.330518e-06, global = 6.201573e-10
ReFuel = 98.61568
ReAir  = 46.90736

fuelSpecies CH3OH

fuelDiffModels[0]
  zone size = 39776
diffusivityModels::fixedDiffusivity: 
   diff0 = diff0 [0 2 -1 0 0 0 0] 2.11143e-05

fuelDiffModels[1]
  zone size = 19360
diffusivityModels::fixedDiffusivity: 
   diff0 = diff0 [0 2 -1 0 0 0 0] 7.465e-06

fuelDiffModels[2]
  zone size = 1936
diffusivityModels::fixedDiffusivity: 
   diff0 = diff0 [0 2 -1 0 0 0 0] 1.8885e-06

diffSpFuel[CH3OH]
    internalField min mean max = 1.8885e-06  1.353507e-05  2.11143e-05

fuelSpecies CO2

fuelDiffModels[0]
  zone size = 39776
diffusivityModels::fixedDiffusivity: 
   diff0 = diff0 [0 2 -1 0 0 0 0] 2.11143e-05

fuelDiffModels[1]
  zone size = 19360
diffusivityModels::fixedDiffusivity: 
   diff0 = diff0 [0 2 -1 0 0 0 0] 7.465e-06

fuelDiffModels[2]
  zone size = 1936
diffusivityModels::fixedDiffusivity: 
   diff0 = diff0 [0 2 -1 0 0 0 0] 1.8885e-06

diffSpFuel[CO2]
    internalField min mean max = 1.8885e-06  1.353507e-05  2.11143e-05

airSpecies O2

airDiffModels[0]
  zone size = 39776
diffusivityModels::binaryFSG:
    diffusing speciesA molWt diffVol: O2 31.9988 16.3
   background speciesB molWt diffVol: N2 28.0134 18.5
diffusivityModels::binaryFSG:
    diffusing speciesA molWt diffVol: O2 31.9988 16.3
   background speciesB molWt diffVol: H2O 18.01534 13.1

airDiffModels[1]
  zone size = 19360
diffusivityModels::porousFSG:
    diffusing speciesA molWt diffVol:  O2 31.9988 16.3
    background speciesB molWt diffVol: N2 28.0134 18.5
    dPore      = dPore [0 1 0 0 0 0 0] 2.64e-05
    porosity   = 1
    tortuosity = 1.5
diffusivityModels::porousFSG:
    diffusing speciesA molWt diffVol:  O2 31.9988 16.3
    background speciesB molWt diffVol: H2O 18.01534 13.1
    dPore      = dPore [0 1 0 0 0 0 0] 2.64e-05
    porosity   = 1
    tortuosity = 1.5

airDiffModels[2]
  zone size = 1936
diffusivityModels::porousFSG:
    diffusing speciesA molWt diffVol:  O2 31.9988 16.3
    background speciesB molWt diffVol: N2 28.0134 18.5
    dPore      = dPore [0 1 0 0 0 0 0] 1.19e-07
    porosity   = 1
    tortuosity = 1.5
diffusivityModels::porousFSG:
    diffusing speciesA molWt diffVol:  O2 31.9988 16.3
    background speciesB molWt diffVol: H2O 18.01534 13.1
    dPore      = dPore [0 1 0 0 0 0 0] 1.19e-07
    porosity   = 1
    tortuosity = 1.5

diffSpAir[O2]
    internalField min mean max = 7.740588e-06  2.354288e-05  2.946254e-05

airSpecies H2O

airDiffModels[0]
  zone size = 39776
diffusivityModels::binaryFSG:
    diffusing speciesA molWt diffVol: H2O 18.01534 13.1
   background speciesB molWt diffVol: O2 31.9988 16.3
diffusivityModels::binaryFSG:
    diffusing speciesA molWt diffVol: H2O 18.01534 13.1
   background speciesB molWt diffVol: N2 28.0134 18.5

airDiffModels[1]
  zone size = 19360
diffusivityModels::porousFSG:
    diffusing speciesA molWt diffVol:  H2O 18.01534 13.1
    background speciesB molWt diffVol: O2 31.9988 16.3
    dPore      = dPore [0 1 0 0 0 0 0] 2.64e-05
    porosity   = 1
    tortuosity = 1.5
diffusivityModels::porousFSG:
    diffusing speciesA molWt diffVol:  H2O 18.01534 13.1
    background speciesB molWt diffVol: N2 28.0134 18.5
    dPore      = dPore [0 1 0 0 0 0 0] 2.64e-05
    porosity   = 1
    tortuosity = 1.5

airDiffModels[2]
  zone size = 1936
diffusivityModels::porousFSG:
    diffusing speciesA molWt diffVol:  H2O 18.01534 13.1
    background speciesB molWt diffVol: O2 31.9988 16.3
    dPore      = dPore [0 1 0 0 0 0 0] 1.19e-07
    porosity   = 1
    tortuosity = 1.5
diffusivityModels::porousFSG:
    diffusing speciesA molWt diffVol:  H2O 18.01534 13.1
    background speciesB molWt diffVol: N2 28.0134 18.5
    dPore      = dPore [0 1 0 0 0 0 0] 1.19e-07
    porosity   = 1
    tortuosity = 1.5

diffSpAir[H2O]
    internalField min mean max = 9.83192e-06  2.793154e-05  3.488499e-05

Solving air scalars
 Yair[0].name() = YO2air
DILUPBiCG:  Solving for YO2air, Initial residual = 0.008669963, Final residual = 5.558284e-10, No Iterations 41
 Yair[1].name() = YN2air
 Yair[2].name() = YH2Oair
DILUPBiCG:  Solving for YH2Oair, Initial residual = 0.00828674, Final residual = 9.825138e-10, No Iterations 42
inertIndex = 1
min,mean,max(YO2air): 0.1935009 , 0.1987758 , 0.2
min,mean,max(YN2air): 0.6498888 , 0.6500026 , 0.650258
min,mean,max(YH2Oair): 0.15 , 0.1512216 , 0.1562467

Solving fuel scalars
 Yfuel[0].name() = YCH3OHfuel
DILUPBiCG:  Solving for YCH3OHfuel, Initial residual = 0.01156903, Final residual = 5.030309e-10, No Iterations 34
 Yfuel[1].name() = YH2Ofuel
 Yfuel[2].name() = YCO2fuel
DILUPBiCG:  Solving for YCO2fuel, Initial residual = 0.01156782, Final residual = 4.138693e-10, No Iterations 34
inertIndex = 1
min,mean,max(YCH3OHfuel): 0.8925528 , 0.8987757 , 0.9
min,mean,max(YH2Ofuel): 0.09979178 , 0.09996577 , 0.1
min,mean,max(YCO2fuel): 1.621665e-10 , 0.001258531 , 0.00765545

Solving electrochemistry
min,max(anodeT): 353.1515 , 353.2703
min,max(cathodeT): 353.1523 , 353.2704
min,mean,max(XCH3OH): 0.8298108 , 0.8330441 , 0.8343416
min,mean,max(XCO2): 0.0006602915 , 0.001957783 , 0.00519111
min,mean,max(XO2): 0.1594343 , 0.16329 , 0.1647708
min,mean,max(XH2O): 0.2213711 , 0.2234157 , 0.2286764
min,mean,max Nernst = 1.568858  1.574642  1.57991

min,max(pSatAnode): 47314.07 , 47542.61
min,max(pSatCathode): 47315.74 , 47542.71
min,mean,max(wActivityAnode): 0.3516502 , 0.352189  0.3532654
min,mean,max(wActivityCathode): 0.4738525 , 0.4768484  0.4877957
min,mean,max(a): 0.8268249 , 0.8290374  0.8397664
min, mean, max (lambda): 7.353825 , 7.409884  7.687212
min,mean,max(sigma): 6.258824  6.31343  6.573056
min,mean,max (RiMem) = 1.944726e-05  2.011727e-05  2.027909e-05
min,mean,max (ASR)= 2.386605e-05 2.453606e-05 2.469788e-05
min,mean,max(concentrationO2)= 5.500031  5.632738  5.684344
min,mean,max(concentrationMe)= 28.62618  28.73785  28.78736
min,mean,max (cathodeT) = 353.1523  353.23  353.2704
min,mean,max (i0Ca) = 0.042227  0.04245907  0.04258035
min,mean,max (anodeT) = 353.1515  353.2296  353.2703
min,mean,max (i0An) = 94.25477  94.50771  94.63977
min,mean,max (iLCa) = 40106.52  41055.75  41418.43
min,mean,max (etaActCa) = 0.6151004  0.6178487  0.6203533
min,mean,max (etaActCa) = 0.3443453  0.3468608  0.3493676
min,mean,max (etaConCa) = 0.002426847  0.002477012  0.002562107
min,mean,max (etaOhmic) = 0.00927325  0.009932702  0.01040305

Solve current

layer 1

sumVolume: 6.1468e-08
min,max(Nernst): 1.568858 , 1.57991
    Ibar = 404.7933    V = 0.6

stack Voltage =0.6
min,mean,max(current): 388.4083 , 404.7933 , 422.3005

Calculating electrochemical heating
anodeEntropyChange  min max: -4.564564 -4.5641
cathodeEntropyChange  min max: 44.73515 44.73833
totalEntropyChange  min max: 40.17105 40.17377
totalEntropySource  min max: -14192.2 -14190.25  -14186.5
min,mean,max(electrochemicalHeating): 195289.7  204943.9  215067.1
fuel species electrochemical fluxes and YEqn BCs
s species[] isFlux[] mflux[] = 0 CH3OH true -0.02168646
s species[] isFlux[] mflux[] = 1 H2O false 0
s species[] isFlux[] mflux[] = 2 CO2 true 0.02978842


fuel mass rates: 
   inlet: 2.3898e-05   outlet: 2.388493e-05   anode: 4.050981e-09
CH3OH mass rates: 
   inlet = 2.15082e-05   outlet = 2.148192e-05   chem = 1.084323e-08
      utilization by chemRate = 0.0005041439
      utilization by outRate  = 0.001221959


air species electrochemical fluxes and YEqn BCs
s species[] isFlux[] mflux[] = 0 O2 true -0.03248907
s species[] isFlux[] mflux[] = 1 N2 false 0
s species[] isFlux[] mflux[] = 2 H2O true 0.03658269


air mass rates: 
   inlet: 1.9194e-05   outlet: 1.911815e-05   cathode: 2.046812e-09
O2 mass rates: 
   inlet = 3.8388e-06   outlet = 3.807019e-06   chem = 1.624454e-08
      utilization by chemRate = 0.00423167
      utilization by outRate  = 0.008278804

min mean max rhoCpF(fuel) = 1578.886 1580.204 1580.778


min mean max rhoCpF(air) = 1044.85 1045.161 1046.14
ELECTROLYTE FLUX MAPPING ACTIVATED
time step continuity errors : sum local = 0.004219725, global = 0.001811579

Solving energy
--> FOAM Warning : 
    From function Foam::fv::gaussConvectionScheme<Type>::gaussConvectionScheme(const Foam::fvMesh&, const surfaceScalarField&, Foam::Istream&) [with Type = double; Foam::surfaceScalarField = Foam::GeometricField<double, Foam::fvsPatchField, Foam::surfaceMesh>]
    in file finiteVolume/convectionSchemes/gaussConvectionScheme/gaussConvectionScheme.H at line 124
    Reading "/home/fatima/OpenFOAM/fatima-4.0/run/pemfcSinglePhaseModel-4.0/run/system/fvSchemes.divSchemes.div(rhoCpPhi,T)" at line 31
    Unbounded 'Gauss' div scheme used in steady-state solver, use 'bounded Gauss' to ensure boundedness.
    To remove this warning switch off 'warnUnboundedGauss' in "/home/fatima/OpenFOAM/OpenFOAM-4.0/etc/controlDict"
DILUPBiCG:  Solving for T, Initial residual = 0.007608489, Final residual = 4.121395e-19, No Iterations 481
T min mean max     = 353.0017    353.204    353.2712

 sum TcellEqn.source() =   0.02627881

ExecutionTime = 87.8 s


Time = 6

Tfuel min mean max = 353.0017    353.1851    353.2706
Tair min mean max  = 353.009    353.205    353.2706
min,mean,max(rhoFuel): 1.02548   1.025915   1.027638
min,mean,max(rhoAir): 0.9096072   0.9125337   0.9136031
min,mean,max(muFuel): 1.153874e-05   1.155254e-05   1.159291e-05
min,mean,max(muAir): 1.941881e-05   1.947753e-05   1.949164e-05
min,mean,max(kFuel): 0.02024597   0.02026409   0.02027603
min,mean,max(kAir): 0.02916344   0.02919689   0.02920588

Solving air flow
--> FOAM Warning : 
    From function Foam::fv::gaussConvectionScheme<Type>::gaussConvectionScheme(const Foam::fvMesh&, const surfaceScalarField&, Foam::Istream&) [with Type = Foam::Vector<double>; Foam::surfaceScalarField = Foam::GeometricField<double, Foam::fvsPatchField, Foam::surfaceMesh>]
    in file finiteVolume/convectionSchemes/gaussConvectionScheme/gaussConvectionScheme.H at line 124
    Reading "/home/fatima/OpenFOAM/fatima-4.0/run/pemfcSinglePhaseModel-4.0/run/system/air/fvSchemes.divSchemes.div(phi,U)" at line 32
    Unbounded 'Gauss' div scheme used in steady-state solver, use 'bounded Gauss' to ensure boundedness.
    To remove this warning switch off 'warnUnboundedGauss' in "/home/fatima/OpenFOAM/OpenFOAM-4.0/etc/controlDict"
DILUPBiCG:  Solving for Ux, Initial residual = 0.09786065, Final residual = 8.211172e-11, No Iterations 6
DILUPBiCG:  Solving for Uy, Initial residual = 0.09912023, Final residual = 6.909242e-10, No Iterations 5
DILUPBiCG:  Solving for Uz, Initial residual = 0.03821737, Final residual = 1.77878e-11, No Iterations 6
DICPCG:  Solving for p, Initial residual = 0.1280456, Final residual = 9.315577e-10, No Iterations 220
time step continuity errors : sum local = 1.893054e-06, global = 2.116792e-09
DICPCG:  Solving for p, Initial residual = 0.2849062, Final residual = 8.073475e-10, No Iterations 225
time step continuity errors : sum local = 1.926615e-06, global = -1.157307e-09

Solving fuel flow
--> FOAM Warning : 
    From function Foam::fv::gaussConvectionScheme<Type>::gaussConvectionScheme(const Foam::fvMesh&, const surfaceScalarField&, Foam::Istream&) [with Type = Foam::Vector<double>; Foam::surfaceScalarField = Foam::GeometricField<double, Foam::fvsPatchField, Foam::surfaceMesh>]
    in file finiteVolume/convectionSchemes/gaussConvectionScheme/gaussConvectionScheme.H at line 124
    Reading "/home/fatima/OpenFOAM/fatima-4.0/run/pemfcSinglePhaseModel-4.0/run/system/fuel/fvSchemes.divSchemes.div(phi,U)" at line 32
    Unbounded 'Gauss' div scheme used in steady-state solver, use 'bounded Gauss' to ensure boundedness.
    To remove this warning switch off 'warnUnboundedGauss' in "/home/fatima/OpenFOAM/OpenFOAM-4.0/etc/controlDict"
DILUPBiCG:  Solving for Ux, Initial residual = 0.1026431, Final residual = 6.158685e-10, No Iterations 6
DILUPBiCG:  Solving for Uy, Initial residual = 0.0959242, Final residual = 3.352822e-10, No Iterations 6
DILUPBiCG:  Solving for Uz, Initial residual = 0.03919634, Final residual = 1.843277e-10, No Iterations 6
DICPCG:  Solving for p, Initial residual = 0.1376119, Final residual = 9.539438e-10, No Iterations 204
time step continuity errors : sum local = 3.365997e-06, global = 3.566574e-09
DICPCG:  Solving for p, Initial residual = 0.177257, Final residual = 7.553651e-10, No Iterations 209
time step continuity errors : sum local = 3.41516e-06, global = 2.245959e-09
ReFuel = 98.61554
ReAir  = 46.9073

fuelSpecies CH3OH

fuelDiffModels[0]
  zone size = 39776
diffusivityModels::fixedDiffusivity: 
   diff0 = diff0 [0 2 -1 0 0 0 0] 2.11143e-05

fuelDiffModels[1]
  zone size = 19360
diffusivityModels::fixedDiffusivity: 
   diff0 = diff0 [0 2 -1 0 0 0 0] 7.465e-06

fuelDiffModels[2]
  zone size = 1936
diffusivityModels::fixedDiffusivity: 
   diff0 = diff0 [0 2 -1 0 0 0 0] 1.8885e-06

diffSpFuel[CH3OH]
    internalField min mean max = 1.8885e-06  1.353507e-05  2.11143e-05

fuelSpecies CO2

fuelDiffModels[0]
  zone size = 39776
diffusivityModels::fixedDiffusivity: 
   diff0 = diff0 [0 2 -1 0 0 0 0] 2.11143e-05

fuelDiffModels[1]
  zone size = 19360
diffusivityModels::fixedDiffusivity: 
   diff0 = diff0 [0 2 -1 0 0 0 0] 7.465e-06

fuelDiffModels[2]
  zone size = 1936
diffusivityModels::fixedDiffusivity: 
   diff0 = diff0 [0 2 -1 0 0 0 0] 1.8885e-06

diffSpFuel[CO2]
    internalField min mean max = 1.8885e-06  1.353507e-05  2.11143e-05

airSpecies O2

airDiffModels[0]
  zone size = 39776
diffusivityModels::binaryFSG:
    diffusing speciesA molWt diffVol: O2 31.9988 16.3
   background speciesB molWt diffVol: N2 28.0134 18.5
diffusivityModels::binaryFSG:
    diffusing speciesA molWt diffVol: O2 31.9988 16.3
   background speciesB molWt diffVol: H2O 18.01534 13.1

airDiffModels[1]
  zone size = 19360
diffusivityModels::porousFSG:
    diffusing speciesA molWt diffVol:  O2 31.9988 16.3
    background speciesB molWt diffVol: N2 28.0134 18.5
    dPore      = dPore [0 1 0 0 0 0 0] 2.64e-05
    porosity   = 1
    tortuosity = 1.5
diffusivityModels::porousFSG:
    diffusing speciesA molWt diffVol:  O2 31.9988 16.3
    background speciesB molWt diffVol: H2O 18.01534 13.1
    dPore      = dPore [0 1 0 0 0 0 0] 2.64e-05
    porosity   = 1
    tortuosity = 1.5

airDiffModels[2]
  zone size = 1936
diffusivityModels::porousFSG:
    diffusing speciesA molWt diffVol:  O2 31.9988 16.3
    background speciesB molWt diffVol: N2 28.0134 18.5
    dPore      = dPore [0 1 0 0 0 0 0] 1.19e-07
    porosity   = 1
    tortuosity = 1.5
diffusivityModels::porousFSG:
    diffusing speciesA molWt diffVol:  O2 31.9988 16.3
    background speciesB molWt diffVol: H2O 18.01534 13.1
    dPore      = dPore [0 1 0 0 0 0 0] 1.19e-07
    porosity   = 1
    tortuosity = 1.5

diffSpAir[O2]
    internalField min mean max = 7.739869e-06  2.353996e-05  2.946207e-05

airSpecies H2O

airDiffModels[0]
  zone size = 39776
diffusivityModels::binaryFSG:
    diffusing speciesA molWt diffVol: H2O 18.01534 13.1
   background speciesB molWt diffVol: O2 31.9988 16.3
diffusivityModels::binaryFSG:
    diffusing speciesA molWt diffVol: H2O 18.01534 13.1
   background speciesB molWt diffVol: N2 28.0134 18.5

airDiffModels[1]
  zone size = 19360
diffusivityModels::porousFSG:
    diffusing speciesA molWt diffVol:  H2O 18.01534 13.1
    background speciesB molWt diffVol: O2 31.9988 16.3
    dPore      = dPore [0 1 0 0 0 0 0] 2.64e-05
    porosity   = 1
    tortuosity = 1.5
diffusivityModels::porousFSG:
    diffusing speciesA molWt diffVol:  H2O 18.01534 13.1
    background speciesB molWt diffVol: N2 28.0134 18.5
    dPore      = dPore [0 1 0 0 0 0 0] 2.64e-05
    porosity   = 1
    tortuosity = 1.5

airDiffModels[2]
  zone size = 1936
diffusivityModels::porousFSG:
    diffusing speciesA molWt diffVol:  H2O 18.01534 13.1
    background speciesB molWt diffVol: O2 31.9988 16.3
    dPore      = dPore [0 1 0 0 0 0 0] 1.19e-07
    porosity   = 1
    tortuosity = 1.5
diffusivityModels::porousFSG:
    diffusing speciesA molWt diffVol:  H2O 18.01534 13.1
    background speciesB molWt diffVol: N2 28.0134 18.5
    dPore      = dPore [0 1 0 0 0 0 0] 1.19e-07
    porosity   = 1
    tortuosity = 1.5

diffSpAir[H2O]
    internalField min mean max = 9.830945e-06  2.792811e-05  3.488356e-05

Solving air scalars
 Yair[0].name() = YO2air
DILUPBiCG:  Solving for YO2air, Initial residual = 0.007274031, Final residual = 7.606465e-10, No Iterations 41
 Yair[1].name() = YN2air
 Yair[2].name() = YH2Oair
DILUPBiCG:  Solving for YH2Oair, Initial residual = 0.006814433, Final residual = 3.74804e-10, No Iterations 42
inertIndex = 1
min,mean,max(YO2air): 0.1935095 , 0.1987748 , 0.2
min,mean,max(YN2air): 0.6498888 , 0.6500028 , 0.650259
min,mean,max(YH2Oair): 0.15 , 0.1512224 , 0.1562358

Solving fuel scalars
 Yfuel[0].name() = YCH3OHfuel
DILUPBiCG:  Solving for YCH3OHfuel, Initial residual = 0.01122918, Final residual = 4.912321e-10, No Iterations 35
 Yfuel[1].name() = YH2Ofuel
 Yfuel[2].name() = YCO2fuel
DILUPBiCG:  Solving for YCO2fuel, Initial residual = 0.01122771, Final residual = 9.239059e-10, No Iterations 34
inertIndex = 1
min,mean,max(YCH3OHfuel): 0.8924635 , 0.8987664 , 0.9
min,mean,max(YH2Ofuel): 0.09978929 , 0.09996551 , 0.1
min,mean,max(YCO2fuel): 1.759545e-10 , 0.0012681 , 0.007747232

Solving electrochemistry
min,max(anodeT): 353.1512 , 353.2708
min,max(cathodeT): 353.1521 , 353.2708
min,mean,max(XCH3OH): 0.8297485 , 0.8330311 , 0.834337
min,mean,max(XCO2): 0.0006648578 , 0.001970754 , 0.005253359
min,mean,max(XO2): 0.1594425 , 0.1632878 , 0.1647678
min,mean,max(XH2O): 0.2213751 , 0.2234181 , 0.2286619
min,mean,max Nernst = 1.568798  1.574604  1.579874

min,max(pSatAnode): 47313.58 , 47543.45
min,max(pSatCathode): 47315.34 , 47543.55
min,mean,max(wActivityAnode): 0.3516457 , 0.352207  0.3533133
min,mean,max(wActivityCathode): 0.4739756 , 0.4769041  0.487762
min,mean,max(a): 0.8269483 , 0.8291111  0.839729
min, mean, max (lambda): 7.356924 , 7.411747  7.686224
min,mean,max(sigma): 6.26205  6.315198  6.572167
min,mean,max (RiMem) = 1.945011e-05  2.011163e-05  2.026581e-05
min,mean,max (ASR)= 2.38689e-05 2.453042e-05 2.46846e-05
min,mean,max(concentrationO2)= 5.500429  5.632519  5.683859
min,mean,max(concentrationMe)= 28.62408  28.73608  28.78421
min,mean,max (cathodeT) = 353.1521  353.2305  353.2708
min,mean,max (i0Ca) = 0.04222638  0.04246057  0.04258168
min,mean,max (anodeT) = 353.1512  353.2301  353.2708
min,mean,max (i0An) = 94.25396  94.50934  94.6412
min,mean,max (iLCa) = 40109.02  41052.13  41411.07
min,mean,max (etaActCa) = 0.6150534  0.6178249  0.6203317
min,mean,max (etaActCa) = 0.3443226  0.3468512  0.3493652
min,mean,max (etaConCa) = 0.002426641  0.002476577  0.002562162
min,mean,max (etaOhmic) = 0.009270125  0.009927777  0.01039631

Solve current

layer 1

sumVolume: 6.1468e-08
min,max(Nernst): 1.568798 , 1.579874
    Ibar = 404.6865    V = 0.6

stack Voltage =0.6
min,mean,max(current): 388.2351 , 404.6865 , 422.2344

Calculating electrochemical heating
[...]

airDiffModels[1]
  zone size = 19360
diffusivityModels::porousFSG:
    diffusing speciesA molWt diffVol:  O2 31.9988 16.3
    background speciesB molWt diffVol: N2 28.0134 18.5
    dPore      = dPore [0 1 0 0 0 0 0] 2.64e-05
    porosity   = 1
    tortuosity = 1.5
diffusivityModels::porousFSG:
    diffusing speciesA molWt diffVol:  O2 31.9988 16.3
    background speciesB molWt diffVol: H2O 18.01534 13.1
    dPore      = dPore [0 1 0 0 0 0 0] 2.64e-05
    porosity   = 1
    tortuosity = 1.5

airDiffModels[2]
  zone size = 1936
diffusivityModels::porousFSG:
    diffusing speciesA molWt diffVol:  O2 31.9988 16.3
    background speciesB molWt diffVol: N2 28.0134 18.5
    dPore      = dPore [0 1 0 0 0 0 0] 1.19e-07
    porosity   = 1
    tortuosity = 1.5
diffusivityModels::porousFSG:
    diffusing speciesA molWt diffVol:  O2 31.9988 16.3
    background speciesB molWt diffVol: H2O 18.01534 13.1
    dPore      = dPore [0 1 0 0 0 0 0] 1.19e-07
    porosity   = 1
    tortuosity = 1.5

diffSpAir[O2]
    internalField min mean max = 7.738917e-06  2.353799e-05  2.945992e-05

airSpecies H2O

airDiffModels[0]
  zone size = 39776
diffusivityModels::binaryFSG:
    diffusing speciesA molWt diffVol: H2O 18.01534 13.1
   background speciesB molWt diffVol: O2 31.9988 16.3
diffusivityModels::binaryFSG:
    diffusing speciesA molWt diffVol: H2O 18.01534 13.1
   background speciesB molWt diffVol: N2 28.0134 18.5

airDiffModels[1]
  zone size = 19360
diffusivityModels::porousFSG:
    diffusing speciesA molWt diffVol:  H2O 18.01534 13.1
    background speciesB molWt diffVol: O2 31.9988 16.3
    dPore      = dPore [0 1 0 0 0 0 0] 2.64e-05
    porosity   = 1
    tortuosity = 1.5
diffusivityModels::porousFSG:
    diffusing speciesA molWt diffVol:  H2O 18.01534 13.1
    background speciesB molWt diffVol: N2 28.0134 18.5
    dPore      = dPore [0 1 0 0 0 0 0] 2.64e-05
    porosity   = 1
    tortuosity = 1.5

airDiffModels[2]
  zone size = 1936
diffusivityModels::porousFSG:
    diffusing speciesA molWt diffVol:  H2O 18.01534 13.1
    background speciesB molWt diffVol: O2 31.9988 16.3
    dPore      = dPore [0 1 0 0 0 0 0] 1.19e-07
    porosity   = 1
    tortuosity = 1.5
diffusivityModels::porousFSG:
    diffusing speciesA molWt diffVol:  H2O 18.01534 13.1
    background speciesB molWt diffVol: N2 28.0134 18.5
    dPore      = dPore [0 1 0 0 0 0 0] 1.19e-07
    porosity   = 1
    tortuosity = 1.5

diffSpAir[H2O]
    internalField min mean max = 9.829789e-06  2.792618e-05  3.488369e-05

Solving air scalars
 Yair[0].name() = YO2air
DILUPBiCG:  Solving for YO2air, Initial residual = 0.0002330146, Final residual = 3.946535e-10, No Iterations 41
 Yair[1].name() = YN2air
 Yair[2].name() = YH2Oair
DILUPBiCG:  Solving for YH2Oair, Initial residual = 0.0002189347, Final residual = 3.151774e-10, No Iterations 42
inertIndex = 1
min,mean,max(YO2air): 0.1931838 , 0.198826 , 0.2
min,mean,max(YN2air): 0.6498888 , 0.6500043 , 0.6503948
min,mean,max(YH2Oair): 0.15 , 0.1511697 , 0.1564214

Solving fuel scalars
 Yfuel[0].name() = YCH3OHfuel
DILUPBiCG:  Solving for YCH3OHfuel, Initial residual = 0.0002881378, Final residual = 5.807817e-10, No Iterations 32
 Yfuel[1].name() = YH2Ofuel
 Yfuel[2].name() = YCO2fuel
DILUPBiCG:  Solving for YCO2fuel, Initial residual = 0.0002810031, Final residual = 5.795548e-10, No Iterations 32
inertIndex = 1
min,mean,max(YCH3OHfuel): 0.8901243 , 0.8987422 , 0.9
min,mean,max(YH2Ofuel): 0.09972388 , 0.09996483 , 0.1
min,mean,max(YCO2fuel): 7.577658e-11 , 0.001292917 , 0.01015179

Solving electrochemistry
min,max(anodeT): 353.1297 , 353.2714
min,max(cathodeT): 353.1312 , 353.2714
min,mean,max(XCH3OH): 0.8281165 , 0.8329923 , 0.8344191
min,mean,max(XCO2): 0.000582776 , 0.002009585 , 0.006885318
min,mean,max(XO2): 0.1591527 , 0.1633567 , 0.1648389
min,mean,max(XH2O): 0.2212752 , 0.2233165 , 0.2289026
min,mean,max Nernst = 1.567391  1.574708  1.580547

min,max(pSatAnode): 47272.35 , 47544.54
min,max(pSatCathode): 47275.22 , 47544.62
min,mean,max(wActivityAnode): 0.3516386 , 0.3522775  0.3536686
min,mean,max(wActivityCathode): 0.4740529 , 0.4767822  0.488276
min,mean,max(a): 0.8268003 , 0.8290597  0.8402419
min, mean, max (lambda): 7.353205 , 7.41049  7.699781
min,mean,max(sigma): 6.259505  6.31381  6.584812
min,mean,max (RiMem) = 1.942861e-05  2.01163e-05  2.026148e-05
min,mean,max (ASR)= 2.38474e-05 2.453509e-05 2.468027e-05
min,mean,max(concentrationO2)= 5.49058  5.636016  5.688755
min,mean,max(concentrationMe)= 28.56885  28.73906  28.79621
min,mean,max (cathodeT) = 353.1312  353.2271  353.2714
min,mean,max (i0Ca) = 0.04216404  0.04245057  0.04258334
min,mean,max (anodeT) = 353.1297  353.2268  353.2714
min,mean,max (i0An) = 94.18447  94.49849  94.64302
min,mean,max (iLCa) = 40037.75  41075.82  41441.5
min,mean,max (etaActCa) = 0.6143417  0.6179136  0.6207166
min,mean,max (etaActCa) = 0.3436196  0.3468614  0.3498258
min,mean,max (etaConCa) = 0.00240786  0.002475708  0.002578152
min,mean,max (etaOhmic) = 0.009155574  0.009932279  0.01045481

Solve current

layer 1

sumVolume: 6.1468e-08
min,max(Nernst): 1.567391 , 1.580547
    Ibar = 404.787    V = 0.6

stack Voltage =0.6
min,mean,max(current): 383.8415 , 404.787 , 425.1593

Calculating electrochemical heating
anodeEntropyChange  min max: -4.564568 -4.564017
cathodeEntropyChange  min max: 44.73458 44.73836
totalEntropyChange  min max: 40.17056 40.17379
totalEntropySource  min max: -14192.25 -14190.11  -14185.48
min,mean,max(electrochemicalHeating): 192685.8  204971.6  216608.7
fuel species electrochemical fluxes and YEqn BCs
s species[] isFlux[] mflux[] = 0 CH3OH true -0.02168612
s species[] isFlux[] mflux[] = 1 H2O false 0
s species[] isFlux[] mflux[] = 2 CO2 true 0.02978795


fuel mass rates: 
   inlet: 2.3898e-05   outlet: 2.345851e-05   anode: 4.050918e-09
CH3OH mass rates: 
   inlet = 2.15082e-05   outlet = 2.109848e-05   chem = 1.084306e-08
      utilization by chemRate = 0.000504136
      utilization by outRate  = 0.01904966


air species electrochemical fluxes and YEqn BCs
s species[] isFlux[] mflux[] = 0 O2 true -0.03248856
s species[] isFlux[] mflux[] = 1 N2 false 0
s species[] isFlux[] mflux[] = 2 H2O true 0.03658212


air mass rates: 
   inlet: 1.9194e-05   outlet: 1.892149e-05   cathode: 2.04678e-09
O2 mass rates: 
   inlet = 3.8388e-06   outlet = 3.767893e-06   chem = 1.624428e-08
      utilization by chemRate = 0.004231604
      utilization by outRate  = 0.01847113

min mean max rhoCpF(fuel) = 1578.462 1580.343 1581.022


min mean max rhoCpF(air) = 1045.06 1045.325 1046.223
ELECTROLYTE FLUX MAPPING ACTIVATED
time step continuity errors : sum local = 0.004219534, global = 0.001811588

Solving energy
--> FOAM Warning : 
    From function Foam::fv::gaussConvectionScheme<Type>::gaussConvectionScheme(const Foam::fvMesh&, const surfaceScalarField&, Foam::Istream&) [with Type = double; Foam::surfaceScalarField = Foam::GeometricField<double, Foam::fvsPatchField, Foam::surfaceMesh>]
    in file finiteVolume/convectionSchemes/gaussConvectionScheme/gaussConvectionScheme.H at line 124
    Reading "/home/fatima/OpenFOAM/fatima-4.0/run/pemfcSinglePhaseModel-4.0/run/system/fvSchemes.divSchemes.div(rhoCpPhi,T)" at line 31
    Unbounded 'Gauss' div scheme used in steady-state solver, use 'bounded Gauss' to ensure boundedness.
    To remove this warning switch off 'warnUnboundedGauss' in "/home/fatima/OpenFOAM/OpenFOAM-4.0/etc/controlDict"
DILUPBiCG:  Solving for T, Initial residual = 0.0001670167, Final residual = 7.299342e-19, No Iterations 490
T min mean max     = 353.0021    353.2029    353.2717

 sum TcellEqn.source() =   0.02645779

ExecutionTime = 1845.64 s


Time = 120

Tfuel min mean max = 353.0021    353.1852    353.2711
Tair min mean max  = 353.01    353.2032    353.2712
min,mean,max(rhoFuel): 1.025593   1.026064   1.028352
min,mean,max(rhoAir): 0.9095092   0.9127424   0.9139377
min,mean,max(muFuel): 1.153875e-05   1.155275e-05   1.160783e-05
min,mean,max(muAir): 1.941629e-05   1.947806e-05   1.949152e-05
min,mean,max(kFuel): 0.020246   0.02026413   0.02027828
min,mean,max(kAir): 0.02916212   0.02919714   0.02920578

Solving air flow
--> FOAM Warning : 
    From function Foam::fv::gaussConvectionScheme<Type>::gaussConvectionScheme(const Foam::fvMesh&, const surfaceScalarField&, Foam::Istream&) [with Type = Foam::Vector<double>; Foam::surfaceScalarField = Foam::GeometricField<double, Foam::fvsPatchField, Foam::surfaceMesh>]
    in file finiteVolume/convectionSchemes/gaussConvectionScheme/gaussConvectionScheme.H at line 124
    Reading "/home/fatima/OpenFOAM/fatima-4.0/run/pemfcSinglePhaseModel-4.0/run/system/air/fvSchemes.divSchemes.div(phi,U)" at line 32
    Unbounded 'Gauss' div scheme used in steady-state solver, use 'bounded Gauss' to ensure boundedness.
    To remove this warning switch off 'warnUnboundedGauss' in "/home/fatima/OpenFOAM/OpenFOAM-4.0/etc/controlDict"
DILUPBiCG:  Solving for Ux, Initial residual = 0.000625263, Final residual = 3.672189e-10, No Iterations 4
DILUPBiCG:  Solving for Uy, Initial residual = 0.00132104, Final residual = 4.889282e-11, No Iterations 5
DILUPBiCG:  Solving for Uz, Initial residual = 0.0001711653, Final residual = 5.176576e-10, No Iterations 4
DICPCG:  Solving for p, Initial residual = 0.003227931, Final residual = 9.92709e-10, No Iterations 177
time step continuity errors : sum local = 1.707187e-06, global = 2.526575e-09
DICPCG:  Solving for p, Initial residual = 0.002024505, Final residual = 7.820313e-10, No Iterations 173
time step continuity errors : sum local = 1.68072e-06, global = 1.527549e-09

Solving fuel flow
--> FOAM Warning : 
    From function Foam::fv::gaussConvectionScheme<Type>::gaussConvectionScheme(const Foam::fvMesh&, const surfaceScalarField&, Foam::Istream&) [with Type = Foam::Vector<double>; Foam::surfaceScalarField = Foam::GeometricField<double, Foam::fvsPatchField, Foam::surfaceMesh>]
    in file finiteVolume/convectionSchemes/gaussConvectionScheme/gaussConvectionScheme.H at line 124
    Reading "/home/fatima/OpenFOAM/fatima-4.0/run/pemfcSinglePhaseModel-4.0/run/system/fuel/fvSchemes.divSchemes.div(phi,U)" at line 32
    Unbounded 'Gauss' div scheme used in steady-state solver, use 'bounded Gauss' to ensure boundedness.
    To remove this warning switch off 'warnUnboundedGauss' in "/home/fatima/OpenFOAM/OpenFOAM-4.0/etc/controlDict"
DILUPBiCG:  Solving for Ux, Initial residual = 0.0008547354, Final residual = 1.042015e-10, No Iterations 5
DILUPBiCG:  Solving for Uy, Initial residual = 0.001508445, Final residual = 2.261293e-10, No Iterations 5
DILUPBiCG:  Solving for Uz, Initial residual = 0.0001677099, Final residual = 8.535405e-12, No Iterations 5
DICPCG:  Solving for p, Initial residual = 0.005987539, Final residual = 9.885901e-10, No Iterations 172
time step continuity errors : sum local = 3.065445e-06, global = 1.878417e-09
DICPCG:  Solving for p, Initial residual = 0.003586165, Final residual = 8.385762e-10, No Iterations 163
time step continuity errors : sum local = 2.996338e-06, global = -3.598241e-09
ReFuel = 98.61603
ReAir  = 46.90732

fuelSpecies CH3OH

fuelDiffModels[0]
  zone size = 39776
diffusivityModels::fixedDiffusivity: 
   diff0 = diff0 [0 2 -1 0 0 0 0] 2.11143e-05

fuelDiffModels[1]
  zone size = 19360
diffusivityModels::fixedDiffusivity: 
   diff0 = diff0 [0 2 -1 0 0 0 0] 7.465e-06

fuelDiffModels[2]
  zone size = 1936
diffusivityModels::fixedDiffusivity: 
   diff0 = diff0 [0 2 -1 0 0 0 0] 1.8885e-06

diffSpFuel[CH3OH]
    internalField min mean max = 1.8885e-06  1.353507e-05  2.11143e-05

fuelSpecies CO2

fuelDiffModels[0]
  zone size = 39776
diffusivityModels::fixedDiffusivity: 
   diff0 = diff0 [0 2 -1 0 0 0 0] 2.11143e-05

fuelDiffModels[1]
  zone size = 19360
diffusivityModels::fixedDiffusivity: 
   diff0 = diff0 [0 2 -1 0 0 0 0] 7.465e-06

fuelDiffModels[2]
  zone size = 1936
diffusivityModels::fixedDiffusivity: 
   diff0 = diff0 [0 2 -1 0 0 0 0] 1.8885e-06

diffSpFuel[CO2]
    internalField min mean max = 1.8885e-06  1.353507e-05  2.11143e-05

airSpecies O2

airDiffModels[0]
  zone size = 39776
diffusivityModels::binaryFSG:
    diffusing speciesA molWt diffVol: O2 31.9988 16.3
   background speciesB molWt diffVol: N2 28.0134 18.5
diffusivityModels::binaryFSG:
    diffusing speciesA molWt diffVol: O2 31.9988 16.3
   background speciesB molWt diffVol: H2O 18.01534 13.1

airDiffModels[1]
  zone size = 19360
diffusivityModels::porousFSG:
    diffusing speciesA molWt diffVol:  O2 31.9988 16.3
    background speciesB molWt diffVol: N2 28.0134 18.5
    dPore      = dPore [0 1 0 0 0 0 0] 2.64e-05
    porosity   = 1
    tortuosity = 1.5
diffusivityModels::porousFSG:
    diffusing speciesA molWt diffVol:  O2 31.9988 16.3
    background speciesB molWt diffVol: H2O 18.01534 13.1
    dPore      = dPore [0 1 0 0 0 0 0] 2.64e-05
    porosity   = 1
    tortuosity = 1.5

airDiffModels[2]
  zone size = 1936
diffusivityModels::porousFSG:
    diffusing speciesA molWt diffVol:  O2 31.9988 16.3
    background speciesB molWt diffVol: N2 28.0134 18.5
    dPore      = dPore [0 1 0 0 0 0 0] 1.19e-07
    porosity   = 1
    tortuosity = 1.5
diffusivityModels::porousFSG:
    diffusing speciesA molWt diffVol:  O2 31.9988 16.3
    background speciesB molWt diffVol: H2O 18.01534 13.1
    dPore      = dPore [0 1 0 0 0 0 0] 1.19e-07
    porosity   = 1
    tortuosity = 1.5

diffSpAir[O2]
    internalField min mean max = 7.738916e-06  2.353799e-05  2.945991e-05

airSpecies H2O

airDiffModels[0]
  zone size = 39776
diffusivityModels::binaryFSG:
    diffusing speciesA molWt diffVol: H2O 18.01534 13.1
   background speciesB molWt diffVol: O2 31.9988 16.3
diffusivityModels::binaryFSG:
    diffusing speciesA molWt diffVol: H2O 18.01534 13.1
   background speciesB molWt diffVol: N2 28.0134 18.5

airDiffModels[1]
  zone size = 19360
diffusivityModels::porousFSG:
    diffusing speciesA molWt diffVol:  H2O 18.01534 13.1
    background speciesB molWt diffVol: O2 31.9988 16.3
    dPore      = dPore [0 1 0 0 0 0 0] 2.64e-05
    porosity   = 1
    tortuosity = 1.5
diffusivityModels::porousFSG:
    diffusing speciesA molWt diffVol:  H2O 18.01534 13.1
    background speciesB molWt diffVol: N2 28.0134 18.5
    dPore      = dPore [0 1 0 0 0 0 0] 2.64e-05
    porosity   = 1
    tortuosity = 1.5

airDiffModels[2]
  zone size = 1936
diffusivityModels::porousFSG:
    diffusing speciesA molWt diffVol:  H2O 18.01534 13.1
    background speciesB molWt diffVol: O2 31.9988 16.3
    dPore      = dPore [0 1 0 0 0 0 0] 1.19e-07
    porosity   = 1
    tortuosity = 1.5
diffusivityModels::porousFSG:
    diffusing speciesA molWt diffVol:  H2O 18.01534 13.1
    background speciesB molWt diffVol: N2 28.0134 18.5
    dPore      = dPore [0 1 0 0 0 0 0] 1.19e-07
    porosity   = 1
    tortuosity = 1.5

diffSpAir[H2O]
    internalField min mean max = 9.829788e-06  2.792617e-05  3.488369e-05

Solving air scalars
 Yair[0].name() = YO2air
DILUPBiCG:  Solving for YO2air, Initial residual = 0.0002294418, Final residual = 4.572156e-10, No Iterations 41
 Yair[1].name() = YN2air
 Yair[2].name() = YH2Oair
DILUPBiCG:  Solving for YH2Oair, Initial residual = 0.0002155694, Final residual = 3.00129e-10, No Iterations 42
inertIndex = 1
min,mean,max(YO2air): 0.1931834 , 0.1988263 , 0.2
min,mean,max(YN2air): 0.6498888 , 0.6500043 , 0.6503951
min,mean,max(YH2Oair): 0.15 , 0.1511694 , 0.1564215

Solving fuel scalars
 Yfuel[0].name() = YCH3OHfuel
DILUPBiCG:  Solving for YCH3OHfuel, Initial residual = 0.0002733605, Final residual = 5.714264e-10, No Iterations 32
 Yfuel[1].name() = YH2Ofuel
 Yfuel[2].name() = YCO2fuel
DILUPBiCG:  Solving for YCO2fuel, Initial residual = 0.0002660573, Final residual = 5.769759e-10, No Iterations 32
inertIndex = 1
min,mean,max(YCH3OHfuel): 0.8901181 , 0.8987423 , 0.9
min,mean,max(YH2Ofuel): 0.09972371 , 0.09996484 , 0.1
min,mean,max(YCO2fuel): 7.560086e-11 , 0.00129283 , 0.01015824

Solving electrochemistry
min,max(anodeT): 353.1297 , 353.2713
min,max(cathodeT): 353.1312 , 353.2714
min,mean,max(XCH3OH): 0.8281122 , 0.8329924 , 0.8344191
min,mean,max(XCO2): 0.0005827278 , 0.002009502 , 0.006889693
min,mean,max(XO2): 0.1591523 , 0.1633571 , 0.1648391
min,mean,max(XH2O): 0.2212749 , 0.223316 , 0.2289027
min,mean,max Nernst = 1.567388  1.574708  1.580547

min,max(pSatAnode): 47272.29 , 47544.5
min,max(pSatCathode): 47275.15 , 47544.58
min,mean,max(wActivityAnode): 0.3516389 , 0.3522779  0.3536691
min,mean,max(wActivityCathode): 0.4740526 , 0.4767818  0.4882767
min,mean,max(a): 0.8267999 , 0.8290596  0.8402429
min, mean, max (lambda): 7.353197 , 7.410489  7.699807
min,mean,max(sigma): 6.259497  6.313808  6.584835
min,mean,max (RiMem) = 1.942853e-05  2.011631e-05  2.026148e-05
min,mean,max (ASR)= 2.384732e-05 2.45351e-05 2.468027e-05
min,mean,max(concentrationO2)= 5.490569  5.636028  5.688763
min,mean,max(concentrationMe)= 28.5687  28.73906  28.79622
min,mean,max (cathodeT) = 353.1312  353.2271  353.2714
min,mean,max (i0Ca) = 0.04216394  0.04245048  0.04258327
min,mean,max (anodeT) = 353.1297  353.2267  353.2713
min,mean,max (i0An) = 94.18437  94.49839  94.64296
min,mean,max (iLCa) = 40037.66  41075.91  41441.56
min,mean,max (etaActCa) = 0.6143403  0.617914  0.6207172
min,mean,max (etaActCa) = 0.3436179  0.3468616  0.3498267
min,mean,max (etaConCa) = 0.002407807  0.002475712  0.00257817
min,mean,max (etaOhmic) = 0.009155294  0.009932319  0.01045487

Solve current

layer 1

sumVolume: 6.1468e-08
min,max(Nernst): 1.567388 , 1.580547
    Ibar = 404.7885    V = 0.6

stack Voltage =0.6
min,mean,max(current): 383.8308 , 404.7885 , 425.1627

Calculating electrochemical heating
anodeEntropyChange  min max: -4.564568 -4.564017
cathodeEntropyChange  min max: 44.73458 44.73836
totalEntropyChange  min max: 40.17056 40.17379
totalEntropySource  min max: -14192.25 -14190.11  -14185.48
min,mean,max(electrochemicalHeating): 192679.8  204972.6  216610.2
fuel species electrochemical fluxes and YEqn BCs
s species[] isFlux[] mflux[] = 0 CH3OH true -0.0216862
s species[] isFlux[] mflux[] = 1 H2O false 0
s species[] isFlux[] mflux[] = 2 CO2 true 0.02978806


fuel mass rates: 
   inlet: 2.3898e-05   outlet: 2.345695e-05   anode: 4.050933e-09
CH3OH mass rates: 
   inlet = 2.15082e-05   outlet = 2.109707e-05   chem = 1.08431e-08
      utilization by chemRate = 0.0005041379
      utilization by outRate  = 0.01911495


air species electrochemical fluxes and YEqn BCs
s species[] isFlux[] mflux[] = 0 O2 true -0.03248869
s species[] isFlux[] mflux[] = 1 N2 false 0
s species[] isFlux[] mflux[] = 2 H2O true 0.03658226


air mass rates: 
   inlet: 1.9194e-05   outlet: 1.892123e-05   cathode: 2.046787e-09
O2 mass rates: 
   inlet = 3.8388e-06   outlet = 3.767842e-06   chem = 1.624434e-08
      utilization by chemRate = 0.00423162
      utilization by outRate  = 0.01848448

min mean max rhoCpF(fuel) = 1578.461 1580.343 1581.022


min mean max rhoCpF(air) = 1045.06 1045.325 1046.223
ELECTROLYTE FLUX MAPPING ACTIVATED
time step continuity errors : sum local = 0.004219527, global = 0.001811594

Solving energy
--> FOAM Warning : 
    From function Foam::fv::gaussConvectionScheme<Type>::gaussConvectionScheme(const Foam::fvMesh&, const surfaceScalarField&, Foam::Istream&) [with Type = double; Foam::surfaceScalarField = Foam::GeometricField<double, Foam::fvsPatchField, Foam::surfaceMesh>]
    in file finiteVolume/convectionSchemes/gaussConvectionScheme/gaussConvectionScheme.H at line 124
    Reading "/home/fatima/OpenFOAM/fatima-4.0/run/pemfcSinglePhaseModel-4.0/run/system/fvSchemes.divSchemes.div(rhoCpPhi,T)" at line 31
    Unbounded 'Gauss' div scheme used in steady-state solver, use 'bounded Gauss' to ensure boundedness.
    To remove this warning switch off 'warnUnboundedGauss' in "/home/fatima/OpenFOAM/OpenFOAM-4.0/etc/controlDict"
DILUPBiCG:  Solving for T, Initial residual = 0.0001601928, Final residual = 6.181303e-19, No Iterations 455
T min mean max     = 353.0021    353.2029    353.2717

 sum TcellEqn.source() =   0.0264584

ExecutionTime = 1862.27 s


End

